version 2
run With_Crosstraffic-0-20201112-17:13:00-20986
attr configname With_Crosstraffic
attr datetime 20201112-17:13:00
attr experiment With_Crosstraffic
attr inifile omnetpp.ini
attr iterationvars ""
attr iterationvarsf ""
attr measurement ""
attr network Test
attr processid 20986
attr repetition 0
attr replication #0
attr resultdir results
attr runnumber 0
attr seedset 0
param **.node1.numApps 3
param **.node1.app[2].typename "\"BGTrafficSourceApp\""
param **.node1.app[2].destAddress "\"0A-00-00-00-00-02\""
param **.node1.app[2].payload "intWithUnit(uniform(1500Byte, 1500Byte))"
param **.node1.app[2].sendInterval uniform(200us,500us)
param **.node2.numApps 4
param **.node2.app[3].typename "\"BGTrafficSinkApp\""
param **.node2.app[3].srcAddress "\"0A-00-00-00-00-01\""
param **.ct_marker 0x03040506
param **.ct_mask 0xffffffff
param **.scheduler.tick 80ns
param **.scheduler.numPeriods 2
param **.scheduler.period[0].cycle_ticks sec_to_tick(5ms)
param **.scheduler.period[1].cycle_ticks sec_to_tick(10ms)
param **.scheduler.period[1].offset_ticks sec_to_tick(1ms)
param **.scheduler.oscillator.max_drift 200ppm
param **.scheduler.oscillator.drift_change uniform(-50ppm,50ppm)
param **.precission 500ns
param **.vl_*.size 10
param **.node1.phy[*].mac.address "\"0A-00-00-00-00-01\""
param **.node1.numApps 2
param **.node1.app[0].typename "\"TTTrafficSourceApp\""
param **.node1.app[0].displayName "\"vl_100\""
param **.node1.app[0].action_time 980us
param **.node1.app[0].payload 46Byte
param **.node1.app[0].ct_id 100
param **.node1.app[0].buffers "\"vl_100\""
param **.node1.app[1].typename "\"TTTrafficSourceApp\""
param **.node1.app[1].displayName "\"vl_102\""
param **.node1.app[1].action_time 1005us
param **.node1.app[1].payload 46Byte
param **.node1.app[1].ct_id 102
param **.node1.app[1].buffers "\"vl_102\""
param **.node1.app[1].period "\"period[1]\""
param **.node1.vl_100_ctc.receive_window_start sec_to_tick(970us)
param **.node1.vl_100_ctc.receive_window_end sec_to_tick(990us)
param **.node1.vl_100_ctc.permanence_pit sec_to_tick(990us)
param **.node1.vl_100.destination_gates "\"phy[0].TTin\""
param **.node1.vl_100.ct_id 100
param **.node1.vl_100.sendWindowStart sec_to_tick(1000us)
param **.node1.vl_102_ctc.receive_window_start sec_to_tick(995us)
param **.node1.vl_102_ctc.receive_window_end sec_to_tick(1015us)
param **.node1.vl_102_ctc.permanence_pit sec_to_tick(1015us)
param **.node1.vl_102_ctc.period "\"period[1]\""
param **.node1.vl_102.destination_gates "\"phy[0].TTin\""
param **.node1.vl_102.ct_id 102
param **.node1.vl_102.sendWindowStart sec_to_tick(1025us)
param **.node1.vl_102.period "\"period[1]\""
param **.node1.phy[0].shaper.tt_buffers "\"vl_100, vl_102\""
param **.node2.phy[*].mac.address "\"0A-00-00-00-00-02\""
param **.node2.numApps 3
param **.node2.app[0].typename "\"RCTrafficSourceApp\""
param **.node2.app[0].displayName "\"vl_101\""
param **.node2.app[0].interval 1ms
param **.node2.app[0].payload 46Byte
param **.node2.app[0].ct_id 101
param **.node2.app[0].buffers "\"vl_101\""
param **.node2.app[1].typename "\"CTTrafficSinkApp\""
param **.node2.app[1].displayName "\"vl_100\""
param **.node2.app[2].typename "\"CTTrafficSinkApp\""
param **.node2.app[2].displayName "\"vl_102\""
param **.node2.phy[0].inControl.ct_incomings "\"vl_100_ctc, vl_102_ctc\""
param **.node2.vl_100.destination_gates "\"app[1].TTin\""
param **.node2.vl_100_ctc.receive_window_start sec_to_tick(1020us)
param **.node2.vl_100_ctc.receive_window_end sec_to_tick(1040us)
param **.node2.vl_100_ctc.permanence_pit sec_to_tick(1040us)
param **.node2.vl_100.ct_id 100
param **.node2.vl_100.sendWindowStart sec_to_tick(1080us)
param **.node2.vl_102.destination_gates "\"app[2].TTin\""
param **.node2.vl_102_ctc.receive_window_start sec_to_tick(1045us)
param **.node2.vl_102_ctc.receive_window_end sec_to_tick(1065us)
param **.node2.vl_102_ctc.permanence_pit sec_to_tick(1065us)
param **.node2.vl_102_ctc.period "\"period[1]\""
param **.node2.vl_102.ct_id 102
param **.node2.vl_102.sendWindowStart sec_to_tick(1105us)
param **.node2.vl_102.period "\"period[1]\""
param **.switch1.phy[0].inControl.ct_incomings "\"vl_100_ctc, vl_102_ctc\""
param **.switch1.phy[1].shaper.tt_buffers "\"vl_100, vl_102\""
param **.switch1.vl_100_ctc.receive_window_start sec_to_tick(995.120us)
param **.switch1.vl_100_ctc.receive_window_end sec_to_tick(1015.120us)
param **.switch1.vl_100_ctc.permanence_pit sec_to_tick(1015.120us)
param **.switch1.vl_100.destination_gates "\"phy[1].TTin\""
param **.switch1.vl_100.ct_id 100
param **.switch1.vl_100.sendWindowStart sec_to_tick(1024.960us)
param **.switch1.vl_102_ctc.receive_window_start sec_to_tick(1020.120us)
param **.switch1.vl_102_ctc.receive_window_end sec_to_tick(1040.120us)
param **.switch1.vl_102_ctc.permanence_pit sec_to_tick(1040.120us)
param **.switch1.vl_102_ctc.period "\"period[1]\""
param **.switch1.vl_102.destination_gates "\"phy[1].TTin\""
param **.switch1.vl_102.ct_id 102
param **.switch1.vl_102.sendWindowStart sec_to_tick(1049.960us)
param **.switch1.vl_102.period "\"period[1]\""

vector 0 Test.switch1.ethg$o[0].channel busy:vector ETV
attr interpolationmode sample-hold
attr source channelBusy
vector 1 Test.switch1.ethg$o[1].channel busy:vector ETV
attr interpolationmode sample-hold
attr source channelBusy
vector 2 Test.node1.ethg$o.channel busy:vector ETV
attr interpolationmode sample-hold
attr source channelBusy
vector 3 Test.node2.ethg$o.channel busy:vector ETV
attr interpolationmode sample-hold
attr source channelBusy
vector 4 Test.switch1.phy[0].shaper beQueueLength:vector ETV
attr interpolationmode sample-hold
attr title "BE-Queue Length, vector"
attr unit packets
vector 5 Test.switch1.phy[0].shaper beQueueSize:vector ETV
attr interpolationmode sample-hold
attr title "BE-Queue Size, vector"
attr unit B
vector 6 Test.switch1.phy[0].shaper rc0QueueLength:vector ETV
attr interpolationmode sample-hold
attr title "RC-Queue Length (rc0QueueLength)"
attr unit packets
vector 7 Test.switch1.phy[0].shaper rc0QueueSize:vector ETV
attr interpolationmode sample-hold
attr title "RC-Queue Size (rc0QueueSize)"
attr unit B
vector 8 Test.switch1.phy[0].shaper rc1QueueLength:vector ETV
attr interpolationmode sample-hold
attr title "RC-Queue Length (rc1QueueLength)"
attr unit packets
vector 9 Test.switch1.phy[0].shaper rc1QueueSize:vector ETV
attr interpolationmode sample-hold
attr title "RC-Queue Size (rc1QueueSize)"
attr unit B
vector 10 Test.switch1.phy[0].shaper rc2QueueLength:vector ETV
attr interpolationmode sample-hold
attr title "RC-Queue Length (rc2QueueLength)"
attr unit packets
vector 11 Test.switch1.phy[0].shaper rc2QueueSize:vector ETV
attr interpolationmode sample-hold
attr title "RC-Queue Size (rc2QueueSize)"
attr unit B
vector 12 Test.switch1.phy[0].shaper rc3QueueLength:vector ETV
attr interpolationmode sample-hold
attr title "RC-Queue Length (rc3QueueLength)"
attr unit packets
vector 13 Test.switch1.phy[0].shaper rc3QueueSize:vector ETV
attr interpolationmode sample-hold
attr title "RC-Queue Size (rc3QueueSize)"
attr unit B
vector 14 Test.switch1.phy[0].shaper rc4QueueLength:vector ETV
attr interpolationmode sample-hold
attr title "RC-Queue Length (rc4QueueLength)"
attr unit packets
vector 15 Test.switch1.phy[0].shaper rc4QueueSize:vector ETV
attr interpolationmode sample-hold
attr title "RC-Queue Size (rc4QueueSize)"
attr unit B
vector 16 Test.switch1.phy[0].shaper rc5QueueLength:vector ETV
attr interpolationmode sample-hold
attr title "RC-Queue Length (rc5QueueLength)"
attr unit packets
vector 17 Test.switch1.phy[0].shaper rc5QueueSize:vector ETV
attr interpolationmode sample-hold
attr title "RC-Queue Size (rc5QueueSize)"
attr unit B
vector 18 Test.switch1.phy[0].shaper rc6QueueLength:vector ETV
attr interpolationmode sample-hold
attr title "RC-Queue Length (rc6QueueLength)"
attr unit packets
vector 19 Test.switch1.phy[0].shaper rc6QueueSize:vector ETV
attr interpolationmode sample-hold
attr title "RC-Queue Size (rc6QueueSize)"
attr unit B
vector 20 Test.switch1.phy[0].shaper rc7QueueLength:vector ETV
attr interpolationmode sample-hold
attr title "RC-Queue Length (rc7QueueLength)"
attr unit packets
vector 21 Test.switch1.phy[0].shaper rc7QueueSize:vector ETV
attr interpolationmode sample-hold
attr title "RC-Queue Size (rc7QueueSize)"
attr unit B
vector 22 Test.switch1.phy[0].shaper rc8QueueLength:vector ETV
attr interpolationmode sample-hold
attr title "RC-Queue Length (rc8QueueLength)"
attr unit packets
vector 23 Test.switch1.phy[0].shaper rc8QueueSize:vector ETV
attr interpolationmode sample-hold
attr title "RC-Queue Size (rc8QueueSize)"
attr unit B
vector 24 Test.switch1.phy[0].shaper rc9QueueLength:vector ETV
attr interpolationmode sample-hold
attr title "RC-Queue Length (rc9QueueLength)"
attr unit packets
vector 25 Test.switch1.phy[0].shaper rc9QueueSize:vector ETV
attr interpolationmode sample-hold
attr title "RC-Queue Size (rc9QueueSize)"
attr unit B
vector 26 Test.switch1.phy[0].shaper pcfQueueLength:vector ETV
attr interpolationmode sample-hold
attr title "PCF-Queue Length, vector"
attr unit packets
vector 27 Test.switch1.phy[0].shaper pcfQueueSize:vector ETV
attr interpolationmode sample-hold
attr title "BE-Queue Size, vector"
attr unit B
vector 28 Test.switch1.phy[0].shaper ttQueueLength:vector ETV
attr interpolationmode sample-hold
attr title "TT-Queue Length, vector"
attr unit packets
vector 29 Test.switch1.phy[1].shaper beQueueLength:vector ETV
attr interpolationmode sample-hold
attr title "BE-Queue Length, vector"
attr unit packets
vector 30 Test.switch1.phy[1].shaper beQueueSize:vector ETV
attr interpolationmode sample-hold
attr title "BE-Queue Size, vector"
attr unit B
vector 31 Test.switch1.phy[1].shaper rc0QueueLength:vector ETV
attr interpolationmode sample-hold
attr title "RC-Queue Length (rc0QueueLength)"
attr unit packets
vector 32 Test.switch1.phy[1].shaper rc0QueueSize:vector ETV
attr interpolationmode sample-hold
attr title "RC-Queue Size (rc0QueueSize)"
attr unit B
vector 33 Test.switch1.phy[1].shaper rc1QueueLength:vector ETV
attr interpolationmode sample-hold
attr title "RC-Queue Length (rc1QueueLength)"
attr unit packets
vector 34 Test.switch1.phy[1].shaper rc1QueueSize:vector ETV
attr interpolationmode sample-hold
attr title "RC-Queue Size (rc1QueueSize)"
attr unit B
vector 35 Test.switch1.phy[1].shaper rc2QueueLength:vector ETV
attr interpolationmode sample-hold
attr title "RC-Queue Length (rc2QueueLength)"
attr unit packets
vector 36 Test.switch1.phy[1].shaper rc2QueueSize:vector ETV
attr interpolationmode sample-hold
attr title "RC-Queue Size (rc2QueueSize)"
attr unit B
vector 37 Test.switch1.phy[1].shaper rc3QueueLength:vector ETV
attr interpolationmode sample-hold
attr title "RC-Queue Length (rc3QueueLength)"
attr unit packets
vector 38 Test.switch1.phy[1].shaper rc3QueueSize:vector ETV
attr interpolationmode sample-hold
attr title "RC-Queue Size (rc3QueueSize)"
attr unit B
vector 39 Test.switch1.phy[1].shaper rc4QueueLength:vector ETV
attr interpolationmode sample-hold
attr title "RC-Queue Length (rc4QueueLength)"
attr unit packets
vector 40 Test.switch1.phy[1].shaper rc4QueueSize:vector ETV
attr interpolationmode sample-hold
attr title "RC-Queue Size (rc4QueueSize)"
attr unit B
vector 41 Test.switch1.phy[1].shaper rc5QueueLength:vector ETV
attr interpolationmode sample-hold
attr title "RC-Queue Length (rc5QueueLength)"
attr unit packets
vector 42 Test.switch1.phy[1].shaper rc5QueueSize:vector ETV
attr interpolationmode sample-hold
attr title "RC-Queue Size (rc5QueueSize)"
attr unit B
vector 43 Test.switch1.phy[1].shaper rc6QueueLength:vector ETV
attr interpolationmode sample-hold
attr title "RC-Queue Length (rc6QueueLength)"
attr unit packets
vector 44 Test.switch1.phy[1].shaper rc6QueueSize:vector ETV
attr interpolationmode sample-hold
attr title "RC-Queue Size (rc6QueueSize)"
attr unit B
vector 45 Test.switch1.phy[1].shaper rc7QueueLength:vector ETV
attr interpolationmode sample-hold
attr title "RC-Queue Length (rc7QueueLength)"
attr unit packets
vector 46 Test.switch1.phy[1].shaper rc7QueueSize:vector ETV
attr interpolationmode sample-hold
attr title "RC-Queue Size (rc7QueueSize)"
attr unit B
vector 47 Test.switch1.phy[1].shaper rc8QueueLength:vector ETV
attr interpolationmode sample-hold
attr title "RC-Queue Length (rc8QueueLength)"
attr unit packets
vector 48 Test.switch1.phy[1].shaper rc8QueueSize:vector ETV
attr interpolationmode sample-hold
attr title "RC-Queue Size (rc8QueueSize)"
attr unit B
vector 49 Test.switch1.phy[1].shaper rc9QueueLength:vector ETV
attr interpolationmode sample-hold
attr title "RC-Queue Length (rc9QueueLength)"
attr unit packets
vector 50 Test.switch1.phy[1].shaper rc9QueueSize:vector ETV
attr interpolationmode sample-hold
attr title "RC-Queue Size (rc9QueueSize)"
attr unit B
vector 51 Test.switch1.phy[1].shaper pcfQueueLength:vector ETV
attr interpolationmode sample-hold
attr title "PCF-Queue Length, vector"
attr unit packets
vector 52 Test.switch1.phy[1].shaper pcfQueueSize:vector ETV
attr interpolationmode sample-hold
attr title "BE-Queue Size, vector"
attr unit B
vector 53 Test.switch1.phy[1].shaper ttQueueLength:vector ETV
attr interpolationmode sample-hold
attr title "TT-Queue Length, vector"
attr unit packets
vector 54 Test.node1.phy[0].shaper beQueueLength:vector ETV
attr interpolationmode sample-hold
attr title "BE-Queue Length, vector"
attr unit packets
vector 55 Test.node1.phy[0].shaper beQueueSize:vector ETV
attr interpolationmode sample-hold
attr title "BE-Queue Size, vector"
attr unit B
vector 56 Test.node1.phy[0].shaper rc0QueueLength:vector ETV
attr interpolationmode sample-hold
attr title "RC-Queue Length (rc0QueueLength)"
attr unit packets
vector 57 Test.node1.phy[0].shaper rc0QueueSize:vector ETV
attr interpolationmode sample-hold
attr title "RC-Queue Size (rc0QueueSize)"
attr unit B
vector 58 Test.node1.phy[0].shaper rc1QueueLength:vector ETV
attr interpolationmode sample-hold
attr title "RC-Queue Length (rc1QueueLength)"
attr unit packets
vector 59 Test.node1.phy[0].shaper rc1QueueSize:vector ETV
attr interpolationmode sample-hold
attr title "RC-Queue Size (rc1QueueSize)"
attr unit B
vector 60 Test.node1.phy[0].shaper rc2QueueLength:vector ETV
attr interpolationmode sample-hold
attr title "RC-Queue Length (rc2QueueLength)"
attr unit packets
vector 61 Test.node1.phy[0].shaper rc2QueueSize:vector ETV
attr interpolationmode sample-hold
attr title "RC-Queue Size (rc2QueueSize)"
attr unit B
vector 62 Test.node1.phy[0].shaper rc3QueueLength:vector ETV
attr interpolationmode sample-hold
attr title "RC-Queue Length (rc3QueueLength)"
attr unit packets
vector 63 Test.node1.phy[0].shaper rc3QueueSize:vector ETV
attr interpolationmode sample-hold
attr title "RC-Queue Size (rc3QueueSize)"
attr unit B
vector 64 Test.node1.phy[0].shaper rc4QueueLength:vector ETV
attr interpolationmode sample-hold
attr title "RC-Queue Length (rc4QueueLength)"
attr unit packets
vector 65 Test.node1.phy[0].shaper rc4QueueSize:vector ETV
attr interpolationmode sample-hold
attr title "RC-Queue Size (rc4QueueSize)"
attr unit B
vector 66 Test.node1.phy[0].shaper rc5QueueLength:vector ETV
attr interpolationmode sample-hold
attr title "RC-Queue Length (rc5QueueLength)"
attr unit packets
vector 67 Test.node1.phy[0].shaper rc5QueueSize:vector ETV
attr interpolationmode sample-hold
attr title "RC-Queue Size (rc5QueueSize)"
attr unit B
vector 68 Test.node1.phy[0].shaper rc6QueueLength:vector ETV
attr interpolationmode sample-hold
attr title "RC-Queue Length (rc6QueueLength)"
attr unit packets
vector 69 Test.node1.phy[0].shaper rc6QueueSize:vector ETV
attr interpolationmode sample-hold
attr title "RC-Queue Size (rc6QueueSize)"
attr unit B
vector 70 Test.node1.phy[0].shaper rc7QueueLength:vector ETV
attr interpolationmode sample-hold
attr title "RC-Queue Length (rc7QueueLength)"
attr unit packets
vector 71 Test.node1.phy[0].shaper rc7QueueSize:vector ETV
attr interpolationmode sample-hold
attr title "RC-Queue Size (rc7QueueSize)"
attr unit B
vector 72 Test.node1.phy[0].shaper rc8QueueLength:vector ETV
attr interpolationmode sample-hold
attr title "RC-Queue Length (rc8QueueLength)"
attr unit packets
vector 73 Test.node1.phy[0].shaper rc8QueueSize:vector ETV
attr interpolationmode sample-hold
attr title "RC-Queue Size (rc8QueueSize)"
attr unit B
vector 74 Test.node1.phy[0].shaper rc9QueueLength:vector ETV
attr interpolationmode sample-hold
attr title "RC-Queue Length (rc9QueueLength)"
attr unit packets
vector 75 Test.node1.phy[0].shaper rc9QueueSize:vector ETV
attr interpolationmode sample-hold
attr title "RC-Queue Size (rc9QueueSize)"
attr unit B
vector 76 Test.node1.phy[0].shaper pcfQueueLength:vector ETV
attr interpolationmode sample-hold
attr title "PCF-Queue Length, vector"
attr unit packets
vector 77 Test.node1.phy[0].shaper pcfQueueSize:vector ETV
attr interpolationmode sample-hold
attr title "BE-Queue Size, vector"
attr unit B
vector 78 Test.node1.phy[0].shaper ttQueueLength:vector ETV
attr interpolationmode sample-hold
attr title "TT-Queue Length, vector"
attr unit packets
vector 79 Test.node2.phy[0].shaper beQueueLength:vector ETV
attr interpolationmode sample-hold
attr title "BE-Queue Length, vector"
attr unit packets
vector 80 Test.node2.phy[0].shaper beQueueSize:vector ETV
attr interpolationmode sample-hold
attr title "BE-Queue Size, vector"
attr unit B
vector 81 Test.node2.phy[0].shaper rc0QueueLength:vector ETV
attr interpolationmode sample-hold
attr title "RC-Queue Length (rc0QueueLength)"
attr unit packets
vector 82 Test.node2.phy[0].shaper rc0QueueSize:vector ETV
attr interpolationmode sample-hold
attr title "RC-Queue Size (rc0QueueSize)"
attr unit B
vector 83 Test.node2.phy[0].shaper rc1QueueLength:vector ETV
attr interpolationmode sample-hold
attr title "RC-Queue Length (rc1QueueLength)"
attr unit packets
vector 84 Test.node2.phy[0].shaper rc1QueueSize:vector ETV
attr interpolationmode sample-hold
attr title "RC-Queue Size (rc1QueueSize)"
attr unit B
vector 85 Test.node2.phy[0].shaper rc2QueueLength:vector ETV
attr interpolationmode sample-hold
attr title "RC-Queue Length (rc2QueueLength)"
attr unit packets
vector 86 Test.node2.phy[0].shaper rc2QueueSize:vector ETV
attr interpolationmode sample-hold
attr title "RC-Queue Size (rc2QueueSize)"
attr unit B
vector 87 Test.node2.phy[0].shaper rc3QueueLength:vector ETV
attr interpolationmode sample-hold
attr title "RC-Queue Length (rc3QueueLength)"
attr unit packets
vector 88 Test.node2.phy[0].shaper rc3QueueSize:vector ETV
attr interpolationmode sample-hold
attr title "RC-Queue Size (rc3QueueSize)"
attr unit B
vector 89 Test.node2.phy[0].shaper rc4QueueLength:vector ETV
attr interpolationmode sample-hold
attr title "RC-Queue Length (rc4QueueLength)"
attr unit packets
vector 90 Test.node2.phy[0].shaper rc4QueueSize:vector ETV
attr interpolationmode sample-hold
attr title "RC-Queue Size (rc4QueueSize)"
attr unit B
vector 91 Test.node2.phy[0].shaper rc5QueueLength:vector ETV
attr interpolationmode sample-hold
attr title "RC-Queue Length (rc5QueueLength)"
attr unit packets
vector 92 Test.node2.phy[0].shaper rc5QueueSize:vector ETV
attr interpolationmode sample-hold
attr title "RC-Queue Size (rc5QueueSize)"
attr unit B
vector 93 Test.node2.phy[0].shaper rc6QueueLength:vector ETV
attr interpolationmode sample-hold
attr title "RC-Queue Length (rc6QueueLength)"
attr unit packets
vector 94 Test.node2.phy[0].shaper rc6QueueSize:vector ETV
attr interpolationmode sample-hold
attr title "RC-Queue Size (rc6QueueSize)"
attr unit B
vector 95 Test.node2.phy[0].shaper rc7QueueLength:vector ETV
attr interpolationmode sample-hold
attr title "RC-Queue Length (rc7QueueLength)"
attr unit packets
vector 96 Test.node2.phy[0].shaper rc7QueueSize:vector ETV
attr interpolationmode sample-hold
attr title "RC-Queue Size (rc7QueueSize)"
attr unit B
vector 97 Test.node2.phy[0].shaper rc8QueueLength:vector ETV
attr interpolationmode sample-hold
attr title "RC-Queue Length (rc8QueueLength)"
attr unit packets
vector 98 Test.node2.phy[0].shaper rc8QueueSize:vector ETV
attr interpolationmode sample-hold
attr title "RC-Queue Size (rc8QueueSize)"
attr unit B
vector 99 Test.node2.phy[0].shaper rc9QueueLength:vector ETV
attr interpolationmode sample-hold
attr title "RC-Queue Length (rc9QueueLength)"
attr unit packets
vector 100 Test.node2.phy[0].shaper rc9QueueSize:vector ETV
attr interpolationmode sample-hold
attr title "RC-Queue Size (rc9QueueSize)"
attr unit B
vector 101 Test.node2.phy[0].shaper pcfQueueLength:vector ETV
attr interpolationmode sample-hold
attr title "PCF-Queue Length, vector"
attr unit packets
vector 102 Test.node2.phy[0].shaper pcfQueueSize:vector ETV
attr interpolationmode sample-hold
attr title "BE-Queue Size, vector"
attr unit B
vector 103 Test.node2.phy[0].shaper ttQueueLength:vector ETV
attr interpolationmode sample-hold
attr title "TT-Queue Length, vector"
attr unit packets
vector 104 Test.node1.app[2] payloadOverTime:vector ETV
attr interpolationmode linear
attr source payloadSignal
attr title "payload over time, vector"
attr unit B
vector 105 Test.node1.app[2] sendIntervalOverTime:vector ETV
attr interpolationmode linear
attr source intervalSignal
attr title "send interval over time, vector"
attr unit s
vector 106 Test.node1.bgOut rxBytes:vector(packetBytes) ETV
attr interpolationmode none
attr source rxPk
attr title "Received Bytes, vector(packetBytes)"
attr unit B
vector 107 Test.node1.bgOut rxLatency:vector ETV
attr interpolationmode none
attr source messageAge(rxPk)
attr title "End-to-end latency (received), vector"
attr unit s
vector 108 Test.node1.bgOut length:vector ETV
attr interpolationmode sample-hold
attr source length
attr title "Queue Length, vector"
attr unit packets
vector 109 Test.node1.bgOut size:vector ETV
attr interpolationmode sample-hold
attr source size
attr title "Queue Size, vector"
attr unit B
vector 110 Test.node1.bgOut txBytes:vector(packetBytes) ETV
attr interpolationmode none
attr source txPk
attr title "Transmitted Bytes, vector(packetBytes)"
attr unit B
vector 111 Test.node1.bgOut txLatency:vector ETV
attr interpolationmode none
attr source messageAge(txPk)
attr title "End-to-end latency (transmitted), vector"
attr unit s
vector 112 Test.node1.phy[0].mac rxPkFromHL:vector(packetBytes) ETV
attr interpolationmode none
attr source rxPkFromHL
attr title "packet bytes from higher layer, vector(packetBytes)"
vector 113 Test.node1.phy[0].mac txPk:vector(packetBytes) ETV
attr interpolationmode none
attr source txPk
attr title "packets transmitted, vector(packetBytes)"
vector 114 Test.switch1.phy[1].mac rxPkOk:vector(packetBytes) ETV
attr interpolationmode none
attr source rxPkOk
attr title "packets received OK, vector(packetBytes)"
vector 115 Test.switch1.phy[1].mac passedUpPk:vector(packetBytes) ETV
attr interpolationmode none
attr source packetSentToUpper
attr title "packets passed to higher layer, vector(packetBytes)"
vector 116 Test.switch1.phy[1].inControl rxLatency:vector ETV
attr interpolationmode none
attr source messageAge(rxPk)
attr title "End-to-end latency (received), vector"
attr unit s
vector 117 Test.switch1.phy[1].inControl bandwidthFloating:floatingIntervalSumVector(packetBytes) ETV
vector 118 Test.switch1.phy[0].mac rxPkFromHL:vector(packetBytes) ETV
attr interpolationmode none
attr source rxPkFromHL
attr title "packet bytes from higher layer, vector(packetBytes)"
vector 119 Test.switch1.phy[0].mac txPk:vector(packetBytes) ETV
attr interpolationmode none
attr source txPk
attr title "packets transmitted, vector(packetBytes)"
vector 120 Test.node2.phy[0].mac rxPkOk:vector(packetBytes) ETV
attr interpolationmode none
attr source rxPkOk
attr title "packets received OK, vector(packetBytes)"
vector 121 Test.node2.phy[0].mac passedUpPk:vector(packetBytes) ETV
attr interpolationmode none
attr source packetSentToUpper
attr title "packets passed to higher layer, vector(packetBytes)"
vector 122 Test.node2.phy[0].inControl rxLatency:vector ETV
attr interpolationmode none
attr source messageAge(rxPk)
attr title "End-to-end latency (received), vector"
attr unit s
vector 123 Test.node2.phy[0].inControl bandwidthFloating:floatingIntervalSumVector(packetBytes) ETV
vector 124 Test.node2.bgIn rxBytes:vector(packetBytes) ETV
attr interpolationmode none
attr source rxPk
attr title "Received Bytes, vector(packetBytes)"
attr unit B
vector 125 Test.node2.bgIn rxLatency:vector ETV
attr interpolationmode none
attr source messageAge(rxPk)
attr title "End-to-end latency (received), vector"
attr unit s
vector 126 Test.node2.bgIn length:vector ETV
attr interpolationmode sample-hold
attr source length
attr title "Queue Length, vector"
attr unit packets
vector 127 Test.node2.bgIn size:vector ETV
attr interpolationmode sample-hold
attr source size
attr title "Queue Size, vector"
attr unit B
vector 128 Test.node1.app[0] payloadOverTime:vector ETV
attr interpolationmode linear
attr source payloadSignal
attr title "payload over time, vector"
attr unit B
vector 129 Test.node1.vl_100_ctc rxBytes:vector(packetBytes) ETV
attr interpolationmode none
attr source rxPk
attr title "Received Bytes, vector(packetBytes)"
attr unit B
vector 130 Test.node1.vl_100_ctc latency:vector ETV
attr interpolationmode none
attr source messageAge(rxPk)
attr title "End-to-end latency, vector"
attr unit s
vector 131 Test.node1.vl_100 rxBytes:vector(packetBytes) ETV
attr interpolationmode none
attr source rxPk
attr title "Received Bytes, vector(packetBytes)"
attr unit B
vector 132 Test.node1.vl_100 rxLatency:vector ETV
attr interpolationmode none
attr source messageAge(rxPk)
attr title "End-to-end latency (received), vector"
attr unit s
vector 133 Test.switch1.scheduler.period[1] newCycle:vector ETV
attr interpolationmode none
attr title "Start of cycle, vector"
0	0	0	0
0	21	0.000020258	1
0	39	0.000032466	0
0	39	0.000358701809	1
0	57	0.000370909809	0
0	57	0.000762365669	1
1	0	0	0
2	0	0	0
2	14	0	1
2	32	0.000012208	0
2	32	0.000338443809	1
2	50	0.000350651809	0
2	50	0.000742107669	1
3	0	0	0
4	0	0	0
5	0	0	0
6	0	0	0
7	0	0	0
8	0	0	0
9	0	0	0
10	0	0	0
11	0	0	0
12	0	0	0
13	0	0	0
14	0	0	0
15	0	0	0
16	0	0	0
17	0	0	0
18	0	0	0
19	0	0	0
20	0	0	0
21	0	0	0
22	0	0	0
23	0	0	0
24	0	0	0
25	0	0	0
26	0	0	0
27	0	0	0
28	0	0	0
29	0	0	0
30	0	0	0
31	0	0	0
32	0	0	0
33	0	0	0
34	0	0	0
35	0	0	0
36	0	0	0
37	0	0	0
38	0	0	0
39	0	0	0
40	0	0	0
41	0	0	0
42	0	0	0
43	0	0	0
44	0	0	0
45	0	0	0
46	0	0	0
47	0	0	0
48	0	0	0
49	0	0	0
50	0	0	0
51	0	0	0
52	0	0	0
53	0	0	0
54	0	0	0
55	0	0	0
56	0	0	0
57	0	0	0
58	0	0	0
59	0	0	0
60	0	0	0
61	0	0	0
62	0	0	0
63	0	0	0
64	0	0	0
65	0	0	0
66	0	0	0
67	0	0	0
68	0	0	0
69	0	0	0
70	0	0	0
71	0	0	0
72	0	0	0
73	0	0	0
74	0	0	0
75	0	0	0
76	0	0	0
77	0	0	0
78	0	0	0
79	0	0	0
80	0	0	0
81	0	0	0
82	0	0	0
83	0	0	0
84	0	0	0
85	0	0	0
86	0	0	0
87	0	0	0
88	0	0	0
89	0	0	0
90	0	0	0
91	0	0	0
92	0	0	0
93	0	0	0
94	0	0	0
95	0	0	0
96	0	0	0
97	0	0	0
98	0	0	0
99	0	0	0
100	0	0	0
101	0	0	0
102	0	0	0
103	0	0	0
104	5	0	1500
104	28	0.000338443809	1500
104	46	0.000742107669	1500
105	5	0	0.000338443809
105	28	0.000338443809	0.00040366386
105	46	0.000742107669	0.000391976305
106	11	0	1518
106	29	0.000338443809	1518
106	47	0.000742107669	1518
107	11	0	0
107	29	0.000338443809	0
107	47	0.000742107669	0
108	11	0	1
108	11	0	0
108	29	0.000338443809	1
108	29	0.000338443809	0
108	47	0.000742107669	1
108	47	0.000742107669	0
109	11	0	1518
109	11	0	0
109	29	0.000338443809	1518
109	29	0.000338443809	0
109	47	0.000742107669	1518
109	47	0.000742107669	0
110	11	0	1518
110	29	0.000338443809	1518
110	47	0.000742107669	1518
111	11	0	0
111	29	0.000338443809	0
111	47	0.000742107669	0
112	14	0	1518
112	32	0.000338443809	1518
112	50	0.000742107669	1518
113	15	0.000012208	1518
113	33	0.000350651809	1518
113	51	0.000754315669	1518
114	16	0.000012258	1518
114	34	0.000350701809	1518
114	52	0.000754365669	1518
115	16	0.000012258	1518
115	34	0.000350701809	1518
115	52	0.000754365669	1518
116	17	0.000012258	1.2258e-05
116	35	0.000350701809	1.2258e-05
116	53	0.000754365669	1.2258e-05
117	17	0.000012258	1518
117	35	0.000350701809	3036
117	53	0.000754365669	4554
118	21	0.000020258	1518
118	39	0.000358701809	1518
118	57	0.000762365669	1518
119	22	0.000032466	1518
119	40	0.000370909809	1518
119	58	0.000774573669	1518
120	23	0.000032516	1518
120	41	0.000370959809	1518
120	59	0.000774623669	1518
121	23	0.000032516	1518
121	41	0.000370959809	1518
121	59	0.000774623669	1518
122	24	0.000032516	3.2516e-05
122	42	0.000370959809	3.2516e-05
122	60	0.000774623669	3.2516e-05
123	24	0.000032516	1518
123	42	0.000370959809	3036
123	60	0.000774623669	4554
124	26	0.000032516	1518
124	44	0.000370959809	1518
124	62	0.000774623669	1518
125	26	0.000032516	3.2516e-05
125	44	0.000370959809	3.2516e-05
125	62	0.000774623669	3.2516e-05
126	26	0.000032516	1
126	44	0.000370959809	2
126	62	0.000774623669	3
127	26	0.000032516	1518
127	44	0.000370959809	3036
127	62	0.000774623669	4554
128	65	0.00098	46
129	66	0.00098	64
130	66	0.00098	0
131	69	0.00099	64
132	69	0.00099	1e-05
133	73	0.001	1
0	73	0.000774573669	0
2	73	0.000754315669	0

