version 2
run With_Crosstraffic-0-20201112-17:13:00-20986
attr configname With_Crosstraffic
attr datetime 20201112-17:13:00
attr experiment With_Crosstraffic
attr inifile omnetpp.ini
attr iterationvars ""
attr iterationvarsf ""
attr measurement ""
attr network Test
attr processid 20986
attr repetition 0
attr replication #0
attr resultdir results
attr runnumber 0
attr seedset 0
param **.node1.numApps 3
param **.node1.app[2].typename "\"BGTrafficSourceApp\""
param **.node1.app[2].destAddress "\"0A-00-00-00-00-02\""
param **.node1.app[2].payload "intWithUnit(uniform(1500Byte, 1500Byte))"
param **.node1.app[2].sendInterval uniform(200us,500us)
param **.node2.numApps 4
param **.node2.app[3].typename "\"BGTrafficSinkApp\""
param **.node2.app[3].srcAddress "\"0A-00-00-00-00-01\""
param **.ct_marker 0x03040506
param **.ct_mask 0xffffffff
param **.scheduler.tick 80ns
param **.scheduler.numPeriods 2
param **.scheduler.period[0].cycle_ticks sec_to_tick(5ms)
param **.scheduler.period[1].cycle_ticks sec_to_tick(10ms)
param **.scheduler.period[1].offset_ticks sec_to_tick(1ms)
param **.scheduler.oscillator.max_drift 200ppm
param **.scheduler.oscillator.drift_change uniform(-50ppm,50ppm)
param **.precission 500ns
param **.vl_*.size 10
param **.node1.phy[*].mac.address "\"0A-00-00-00-00-01\""
param **.node1.numApps 2
param **.node1.app[0].typename "\"TTTrafficSourceApp\""
param **.node1.app[0].displayName "\"vl_100\""
param **.node1.app[0].action_time 980us
param **.node1.app[0].payload 46Byte
param **.node1.app[0].ct_id 100
param **.node1.app[0].buffers "\"vl_100\""
param **.node1.app[1].typename "\"TTTrafficSourceApp\""
param **.node1.app[1].displayName "\"vl_102\""
param **.node1.app[1].action_time 1005us
param **.node1.app[1].payload 46Byte
param **.node1.app[1].ct_id 102
param **.node1.app[1].buffers "\"vl_102\""
param **.node1.app[1].period "\"period[1]\""
param **.node1.vl_100_ctc.receive_window_start sec_to_tick(970us)
param **.node1.vl_100_ctc.receive_window_end sec_to_tick(990us)
param **.node1.vl_100_ctc.permanence_pit sec_to_tick(990us)
param **.node1.vl_100.destination_gates "\"phy[0].TTin\""
param **.node1.vl_100.ct_id 100
param **.node1.vl_100.sendWindowStart sec_to_tick(1000us)
param **.node1.vl_102_ctc.receive_window_start sec_to_tick(995us)
param **.node1.vl_102_ctc.receive_window_end sec_to_tick(1015us)
param **.node1.vl_102_ctc.permanence_pit sec_to_tick(1015us)
param **.node1.vl_102_ctc.period "\"period[1]\""
param **.node1.vl_102.destination_gates "\"phy[0].TTin\""
param **.node1.vl_102.ct_id 102
param **.node1.vl_102.sendWindowStart sec_to_tick(1025us)
param **.node1.vl_102.period "\"period[1]\""
param **.node1.phy[0].shaper.tt_buffers "\"vl_100, vl_102\""
param **.node2.phy[*].mac.address "\"0A-00-00-00-00-02\""
param **.node2.numApps 3
param **.node2.app[0].typename "\"RCTrafficSourceApp\""
param **.node2.app[0].displayName "\"vl_101\""
param **.node2.app[0].interval 1ms
param **.node2.app[0].payload 46Byte
param **.node2.app[0].ct_id 101
param **.node2.app[0].buffers "\"vl_101\""
param **.node2.app[1].typename "\"CTTrafficSinkApp\""
param **.node2.app[1].displayName "\"vl_100\""
param **.node2.app[2].typename "\"CTTrafficSinkApp\""
param **.node2.app[2].displayName "\"vl_102\""
param **.node2.phy[0].inControl.ct_incomings "\"vl_100_ctc, vl_102_ctc\""
param **.node2.vl_100.destination_gates "\"app[1].TTin\""
param **.node2.vl_100_ctc.receive_window_start sec_to_tick(1020us)
param **.node2.vl_100_ctc.receive_window_end sec_to_tick(1040us)
param **.node2.vl_100_ctc.permanence_pit sec_to_tick(1040us)
param **.node2.vl_100.ct_id 100
param **.node2.vl_100.sendWindowStart sec_to_tick(1080us)
param **.node2.vl_102.destination_gates "\"app[2].TTin\""
param **.node2.vl_102_ctc.receive_window_start sec_to_tick(1045us)
param **.node2.vl_102_ctc.receive_window_end sec_to_tick(1065us)
param **.node2.vl_102_ctc.permanence_pit sec_to_tick(1065us)
param **.node2.vl_102_ctc.period "\"period[1]\""
param **.node2.vl_102.ct_id 102
param **.node2.vl_102.sendWindowStart sec_to_tick(1105us)
param **.node2.vl_102.period "\"period[1]\""
param **.switch1.phy[0].inControl.ct_incomings "\"vl_100_ctc, vl_102_ctc\""
param **.switch1.phy[1].shaper.tt_buffers "\"vl_100, vl_102\""
param **.switch1.vl_100_ctc.receive_window_start sec_to_tick(995.120us)
param **.switch1.vl_100_ctc.receive_window_end sec_to_tick(1015.120us)
param **.switch1.vl_100_ctc.permanence_pit sec_to_tick(1015.120us)
param **.switch1.vl_100.destination_gates "\"phy[1].TTin\""
param **.switch1.vl_100.ct_id 100
param **.switch1.vl_100.sendWindowStart sec_to_tick(1024.960us)
param **.switch1.vl_102_ctc.receive_window_start sec_to_tick(1020.120us)
param **.switch1.vl_102_ctc.receive_window_end sec_to_tick(1040.120us)
param **.switch1.vl_102_ctc.permanence_pit sec_to_tick(1040.120us)
param **.switch1.vl_102_ctc.period "\"period[1]\""
param **.switch1.vl_102.destination_gates "\"phy[1].TTin\""
param **.switch1.vl_102.ct_id 102
param **.switch1.vl_102.sendWindowStart sec_to_tick(1049.960us)
param **.switch1.vl_102.period "\"period[1]\""

scalar Test.switch1.ethg$o[0].channel packetsDiscarded:count 0
attr interpolationmode none
attr source constant1(messageDiscarded)
scalar Test.switch1.ethg$o[0].channel utilization:last 0.047282784666929
attr source timeavg(channelBusy)
scalar Test.switch1.ethg$o[0].channel packets:count 3
attr interpolationmode none
attr source constant1(messageSent)
scalar Test.switch1.ethg$o[0].channel packetBytes:sum 4578
attr interpolationmode none
attr source packetBytes(messageSent)
attr unit B
scalar Test.switch1.ethg$o[0].channel throughput:last 48039938.692465
attr source sumPerDuration(packetBits(messageSent))
attr unit bps
scalar Test.switch1.ethg$o[1].channel packetsDiscarded:count 0
attr interpolationmode none
attr source constant1(messageDiscarded)
scalar Test.switch1.ethg$o[1].channel utilization:last -nan
attr source timeavg(channelBusy)
scalar Test.switch1.ethg$o[1].channel packets:count 0
attr interpolationmode none
attr source constant1(messageSent)
scalar Test.switch1.ethg$o[1].channel packetBytes:sum 0
attr interpolationmode none
attr source packetBytes(messageSent)
attr unit B
scalar Test.switch1.ethg$o[1].channel throughput:last -nan
attr source sumPerDuration(packetBits(messageSent))
attr unit bps
scalar Test.node1.ethg$o.channel packetsDiscarded:count 0
attr interpolationmode none
attr source constant1(messageDiscarded)
scalar Test.node1.ethg$o.channel utilization:last 0.048552617299535
attr source timeavg(channelBusy)
scalar Test.node1.ethg$o.channel packets:count 3
attr interpolationmode none
attr source constant1(messageSent)
scalar Test.node1.ethg$o.channel packetBytes:sum 4578
attr interpolationmode none
attr source packetBytes(messageSent)
attr unit B
scalar Test.node1.ethg$o.channel throughput:last 49351329.368892
attr source sumPerDuration(packetBits(messageSent))
attr unit bps
scalar Test.node2.ethg$o.channel packetsDiscarded:count 0
attr interpolationmode none
attr source constant1(messageDiscarded)
scalar Test.node2.ethg$o.channel utilization:last -nan
attr source timeavg(channelBusy)
scalar Test.node2.ethg$o.channel packets:count 0
attr interpolationmode none
attr source constant1(messageSent)
scalar Test.node2.ethg$o.channel packetBytes:sum 0
attr interpolationmode none
attr source packetBytes(messageSent)
attr unit B
scalar Test.node2.ethg$o.channel throughput:last -nan
attr source sumPerDuration(packetBits(messageSent))
attr unit bps
scalar Test.switch1.beswitch.ifOut[0].channel messagesDiscarded:count 0
attr interpolationmode none
attr source constant1(messageDiscarded)
scalar Test.switch1.beswitch.ifOut[0].channel messages:count 3
attr interpolationmode none
attr source constant1(messageSent)
scalar Test.switch1.beswitch.ifOut[1].channel messagesDiscarded:count 0
attr interpolationmode none
attr source constant1(messageDiscarded)
scalar Test.switch1.beswitch.ifOut[1].channel messages:count 0
attr interpolationmode none
attr source constant1(messageSent)
scalar Test.switch1.phy[0].upperLayerOut.channel messagesDiscarded:count 0
attr interpolationmode none
attr source constant1(messageDiscarded)
scalar Test.switch1.phy[0].upperLayerOut.channel messages:count 0
attr interpolationmode none
attr source constant1(messageSent)
scalar Test.switch1.phy[1].upperLayerOut.channel messagesDiscarded:count 0
attr interpolationmode none
attr source constant1(messageDiscarded)
scalar Test.switch1.phy[1].upperLayerOut.channel messages:count 3
attr interpolationmode none
attr source constant1(messageSent)
scalar Test.switch1.beswitch "processed frames" 3
scalar Test.switch1.beswitch "discarded frames" 0
statistic Test.switch1.phy[0].shaper rc9QueueSize:stats
field count 1
field mean 0
field stddev -nan
field min 0
field max 0
field sum 0
field sqrsum 0
attr interpolationmode sample-hold
attr title "RC-Queue Size (rc9QueueSize)"
attr unit B
statistic Test.switch1.phy[0].shaper rc9QueueLength:stats
field count 1
field mean 0
field stddev -nan
field min 0
field max 0
field sum 0
field sqrsum 0
attr interpolationmode sample-hold
attr title "RC-Queue Length (rc9QueueLength)"
attr unit packets
statistic Test.switch1.phy[0].shaper rc8QueueSize:stats
field count 1
field mean 0
field stddev -nan
field min 0
field max 0
field sum 0
field sqrsum 0
attr interpolationmode sample-hold
attr title "RC-Queue Size (rc8QueueSize)"
attr unit B
statistic Test.switch1.phy[0].shaper rc8QueueLength:stats
field count 1
field mean 0
field stddev -nan
field min 0
field max 0
field sum 0
field sqrsum 0
attr interpolationmode sample-hold
attr title "RC-Queue Length (rc8QueueLength)"
attr unit packets
statistic Test.switch1.phy[0].shaper rc7QueueSize:stats
field count 1
field mean 0
field stddev -nan
field min 0
field max 0
field sum 0
field sqrsum 0
attr interpolationmode sample-hold
attr title "RC-Queue Size (rc7QueueSize)"
attr unit B
statistic Test.switch1.phy[0].shaper rc7QueueLength:stats
field count 1
field mean 0
field stddev -nan
field min 0
field max 0
field sum 0
field sqrsum 0
attr interpolationmode sample-hold
attr title "RC-Queue Length (rc7QueueLength)"
attr unit packets
statistic Test.switch1.phy[0].shaper rc6QueueSize:stats
field count 1
field mean 0
field stddev -nan
field min 0
field max 0
field sum 0
field sqrsum 0
attr interpolationmode sample-hold
attr title "RC-Queue Size (rc6QueueSize)"
attr unit B
statistic Test.switch1.phy[0].shaper rc6QueueLength:stats
field count 1
field mean 0
field stddev -nan
field min 0
field max 0
field sum 0
field sqrsum 0
attr interpolationmode sample-hold
attr title "RC-Queue Length (rc6QueueLength)"
attr unit packets
statistic Test.switch1.phy[0].shaper rc5QueueSize:stats
field count 1
field mean 0
field stddev -nan
field min 0
field max 0
field sum 0
field sqrsum 0
attr interpolationmode sample-hold
attr title "RC-Queue Size (rc5QueueSize)"
attr unit B
statistic Test.switch1.phy[0].shaper rc5QueueLength:stats
field count 1
field mean 0
field stddev -nan
field min 0
field max 0
field sum 0
field sqrsum 0
attr interpolationmode sample-hold
attr title "RC-Queue Length (rc5QueueLength)"
attr unit packets
statistic Test.switch1.phy[0].shaper rc4QueueSize:stats
field count 1
field mean 0
field stddev -nan
field min 0
field max 0
field sum 0
field sqrsum 0
attr interpolationmode sample-hold
attr title "RC-Queue Size (rc4QueueSize)"
attr unit B
statistic Test.switch1.phy[0].shaper rc4QueueLength:stats
field count 1
field mean 0
field stddev -nan
field min 0
field max 0
field sum 0
field sqrsum 0
attr interpolationmode sample-hold
attr title "RC-Queue Length (rc4QueueLength)"
attr unit packets
statistic Test.switch1.phy[0].shaper rc3QueueSize:stats
field count 1
field mean 0
field stddev -nan
field min 0
field max 0
field sum 0
field sqrsum 0
attr interpolationmode sample-hold
attr title "RC-Queue Size (rc3QueueSize)"
attr unit B
statistic Test.switch1.phy[0].shaper rc3QueueLength:stats
field count 1
field mean 0
field stddev -nan
field min 0
field max 0
field sum 0
field sqrsum 0
attr interpolationmode sample-hold
attr title "RC-Queue Length (rc3QueueLength)"
attr unit packets
statistic Test.switch1.phy[0].shaper rc2QueueSize:stats
field count 1
field mean 0
field stddev -nan
field min 0
field max 0
field sum 0
field sqrsum 0
attr interpolationmode sample-hold
attr title "RC-Queue Size (rc2QueueSize)"
attr unit B
statistic Test.switch1.phy[0].shaper rc2QueueLength:stats
field count 1
field mean 0
field stddev -nan
field min 0
field max 0
field sum 0
field sqrsum 0
attr interpolationmode sample-hold
attr title "RC-Queue Length (rc2QueueLength)"
attr unit packets
statistic Test.switch1.phy[0].shaper rc1QueueSize:stats
field count 1
field mean 0
field stddev -nan
field min 0
field max 0
field sum 0
field sqrsum 0
attr interpolationmode sample-hold
attr title "RC-Queue Size (rc1QueueSize)"
attr unit B
statistic Test.switch1.phy[0].shaper rc1QueueLength:stats
field count 1
field mean 0
field stddev -nan
field min 0
field max 0
field sum 0
field sqrsum 0
attr interpolationmode sample-hold
attr title "RC-Queue Length (rc1QueueLength)"
attr unit packets
statistic Test.switch1.phy[0].shaper rc0QueueSize:stats
field count 1
field mean 0
field stddev -nan
field min 0
field max 0
field sum 0
field sqrsum 0
attr interpolationmode sample-hold
attr title "RC-Queue Size (rc0QueueSize)"
attr unit B
statistic Test.switch1.phy[0].shaper rc0QueueLength:stats
field count 1
field mean 0
field stddev -nan
field min 0
field max 0
field sum 0
field sqrsum 0
attr interpolationmode sample-hold
attr title "RC-Queue Length (rc0QueueLength)"
attr unit packets
statistic Test.switch1.phy[0].shaper beQueueSize:stats
field count 1
field mean 0
field stddev -nan
field min 0
field max 0
field sum 0
field sqrsum 0
attr interpolationmode sample-hold
attr title "BE-Queue Size, stats"
attr unit B
statistic Test.switch1.phy[0].shaper beQueueLength:stats
field count 1
field mean 0
field stddev -nan
field min 0
field max 0
field sum 0
field sqrsum 0
attr interpolationmode sample-hold
attr title "BE-Queue Length, stats"
attr unit packets
statistic Test.switch1.phy[0].shaper pcfQueueSize:stats
field count 1
field mean 0
field stddev -nan
field min 0
field max 0
field sum 0
field sqrsum 0
attr interpolationmode sample-hold
attr title "BE-Queue Size, stats"
attr unit B
statistic Test.switch1.phy[0].shaper pcfQueueLength:stats
field count 1
field mean 0
field stddev -nan
field min 0
field max 0
field sum 0
field sqrsum 0
attr interpolationmode sample-hold
attr title "PCF-Queue Length, stats"
attr unit packets
statistic Test.switch1.phy[0].shaper ttQueueLength:stats
field count 1
field mean 0
field stddev -nan
field min 0
field max 0
field sum 0
field sqrsum 0
attr interpolationmode sample-hold
attr title "TT-Queue Length, stats"
attr unit packets
scalar Test.switch1.phy[0].inControl dropped:count 0
attr interpolationmode none
attr source droppedPk
attr title "Unconfigured CT dropped, count"
attr unit packets
statistic Test.switch1.phy[0].inControl rxLatency:stats
field count 0
field mean -nan
field stddev -nan
field min -nan
field max -nan
field sum 0
field sqrsum 0
attr interpolationmode none
attr source messageAge(rxPk)
attr title "End-to-end latency (received), stats"
attr unit s
statistic Test.switch1.phy[0].inControl rxLatency:histogram
field count 0
field mean -nan
field stddev -nan
field min -nan
field max -nan
field sum 0
field sqrsum 0
attr interpolationmode none
attr source messageAge(rxPk)
attr title "End-to-end latency (received), histogram"
attr unit s
bin	-inf	0
bin	0	0
bin	1	0
scalar Test.switch1.phy[0].mac "simulated time" 0.001
scalar Test.switch1.phy[0].mac full-duplex 1
scalar Test.switch1.phy[0].mac "frames/sec sent" 3000
scalar Test.switch1.phy[0].mac "frames/sec rcvd" 0
scalar Test.switch1.phy[0].mac "bits/sec sent" 36432000
scalar Test.switch1.phy[0].mac "bits/sec rcvd" 0
scalar Test.switch1.phy[0].mac "rx channel idle (%)" 100
scalar Test.switch1.phy[0].mac "rx channel utilization (%)" 0
scalar Test.switch1.phy[0].mac droppedPkNotForUs:count 0
attr interpolationmode none
attr source dropPkNotForUs
attr title "packets dropped/not for us, count"
scalar Test.switch1.phy[0].mac droppedPkNotForUs:sum(packetBytes) 0
attr interpolationmode none
attr source dropPkNotForUs
attr title "packets dropped/not for us, sum(packetBytes)"
scalar Test.switch1.phy[0].mac droppedPkIfaceDown:count 0
attr interpolationmode none
attr source dropPkIfaceDown
attr title "packets dropped/interface down, count"
scalar Test.switch1.phy[0].mac droppedPkIfaceDown:sum(packetBytes) 0
attr interpolationmode none
attr source dropPkIfaceDown
attr title "packets dropped/interface down, sum(packetBytes)"
scalar Test.switch1.phy[0].mac droppedPkBitError:count 0
attr interpolationmode none
attr source dropPkBitError
attr title "packets dropped/bit error, count"
scalar Test.switch1.phy[0].mac droppedPkBitError:sum(packetBytes) 0
attr interpolationmode none
attr source dropPkBitError
attr title "packets dropped/bit error, sum(packetBytes)"
scalar Test.switch1.phy[0].mac rxPkFromHL:count 3
attr interpolationmode none
attr source rxPkFromHL
attr title "packet bytes from higher layer, count"
scalar Test.switch1.phy[0].mac rxPkFromHL:sum(packetBytes) 4554
attr interpolationmode none
attr source rxPkFromHL
attr title "packet bytes from higher layer, sum(packetBytes)"
scalar Test.switch1.phy[0].mac rxPausePkUnits:count 0
attr interpolationmode none
attr title "pause units received, count"
scalar Test.switch1.phy[0].mac rxPausePkUnits:sum 0
attr interpolationmode none
attr title "pause units received, sum"
scalar Test.switch1.phy[0].mac txPausePkUnits:count 0
attr interpolationmode none
attr title "pause units sent, count"
scalar Test.switch1.phy[0].mac txPausePkUnits:sum 0
attr interpolationmode none
attr title "pause units sent, sum"
scalar Test.switch1.phy[0].mac rxPkOk:count 0
attr interpolationmode none
attr source rxPkOk
attr title "packets received OK, count"
scalar Test.switch1.phy[0].mac rxPkOk:sum(packetBytes) 0
attr interpolationmode none
attr source rxPkOk
attr title "packets received OK, sum(packetBytes)"
scalar Test.switch1.phy[0].mac txPk:count 3
attr interpolationmode none
attr source txPk
attr title "packets transmitted, count"
scalar Test.switch1.phy[0].mac txPk:sum(packetBytes) 4554
attr interpolationmode none
attr source txPk
attr title "packets transmitted, sum(packetBytes)"
scalar Test.switch1.phy[0].mac passedUpPk:count 0
attr interpolationmode none
attr source packetSentToUpper
attr title "packets passed to higher layer, count"
scalar Test.switch1.phy[0].mac passedUpPk:sum(packetBytes) 0
attr interpolationmode none
attr source packetSentToUpper
attr title "packets passed to higher layer, sum(packetBytes)"
statistic Test.switch1.phy[1].shaper rc9QueueSize:stats
field count 1
field mean 0
field stddev -nan
field min 0
field max 0
field sum 0
field sqrsum 0
attr interpolationmode sample-hold
attr title "RC-Queue Size (rc9QueueSize)"
attr unit B
statistic Test.switch1.phy[1].shaper rc9QueueLength:stats
field count 1
field mean 0
field stddev -nan
field min 0
field max 0
field sum 0
field sqrsum 0
attr interpolationmode sample-hold
attr title "RC-Queue Length (rc9QueueLength)"
attr unit packets
statistic Test.switch1.phy[1].shaper rc8QueueSize:stats
field count 1
field mean 0
field stddev -nan
field min 0
field max 0
field sum 0
field sqrsum 0
attr interpolationmode sample-hold
attr title "RC-Queue Size (rc8QueueSize)"
attr unit B
statistic Test.switch1.phy[1].shaper rc8QueueLength:stats
field count 1
field mean 0
field stddev -nan
field min 0
field max 0
field sum 0
field sqrsum 0
attr interpolationmode sample-hold
attr title "RC-Queue Length (rc8QueueLength)"
attr unit packets
statistic Test.switch1.phy[1].shaper rc7QueueSize:stats
field count 1
field mean 0
field stddev -nan
field min 0
field max 0
field sum 0
field sqrsum 0
attr interpolationmode sample-hold
attr title "RC-Queue Size (rc7QueueSize)"
attr unit B
statistic Test.switch1.phy[1].shaper rc7QueueLength:stats
field count 1
field mean 0
field stddev -nan
field min 0
field max 0
field sum 0
field sqrsum 0
attr interpolationmode sample-hold
attr title "RC-Queue Length (rc7QueueLength)"
attr unit packets
statistic Test.switch1.phy[1].shaper rc6QueueSize:stats
field count 1
field mean 0
field stddev -nan
field min 0
field max 0
field sum 0
field sqrsum 0
attr interpolationmode sample-hold
attr title "RC-Queue Size (rc6QueueSize)"
attr unit B
statistic Test.switch1.phy[1].shaper rc6QueueLength:stats
field count 1
field mean 0
field stddev -nan
field min 0
field max 0
field sum 0
field sqrsum 0
attr interpolationmode sample-hold
attr title "RC-Queue Length (rc6QueueLength)"
attr unit packets
statistic Test.switch1.phy[1].shaper rc5QueueSize:stats
field count 1
field mean 0
field stddev -nan
field min 0
field max 0
field sum 0
field sqrsum 0
attr interpolationmode sample-hold
attr title "RC-Queue Size (rc5QueueSize)"
attr unit B
statistic Test.switch1.phy[1].shaper rc5QueueLength:stats
field count 1
field mean 0
field stddev -nan
field min 0
field max 0
field sum 0
field sqrsum 0
attr interpolationmode sample-hold
attr title "RC-Queue Length (rc5QueueLength)"
attr unit packets
statistic Test.switch1.phy[1].shaper rc4QueueSize:stats
field count 1
field mean 0
field stddev -nan
field min 0
field max 0
field sum 0
field sqrsum 0
attr interpolationmode sample-hold
attr title "RC-Queue Size (rc4QueueSize)"
attr unit B
statistic Test.switch1.phy[1].shaper rc4QueueLength:stats
field count 1
field mean 0
field stddev -nan
field min 0
field max 0
field sum 0
field sqrsum 0
attr interpolationmode sample-hold
attr title "RC-Queue Length (rc4QueueLength)"
attr unit packets
statistic Test.switch1.phy[1].shaper rc3QueueSize:stats
field count 1
field mean 0
field stddev -nan
field min 0
field max 0
field sum 0
field sqrsum 0
attr interpolationmode sample-hold
attr title "RC-Queue Size (rc3QueueSize)"
attr unit B
statistic Test.switch1.phy[1].shaper rc3QueueLength:stats
field count 1
field mean 0
field stddev -nan
field min 0
field max 0
field sum 0
field sqrsum 0
attr interpolationmode sample-hold
attr title "RC-Queue Length (rc3QueueLength)"
attr unit packets
statistic Test.switch1.phy[1].shaper rc2QueueSize:stats
field count 1
field mean 0
field stddev -nan
field min 0
field max 0
field sum 0
field sqrsum 0
attr interpolationmode sample-hold
attr title "RC-Queue Size (rc2QueueSize)"
attr unit B
statistic Test.switch1.phy[1].shaper rc2QueueLength:stats
field count 1
field mean 0
field stddev -nan
field min 0
field max 0
field sum 0
field sqrsum 0
attr interpolationmode sample-hold
attr title "RC-Queue Length (rc2QueueLength)"
attr unit packets
statistic Test.switch1.phy[1].shaper rc1QueueSize:stats
field count 1
field mean 0
field stddev -nan
field min 0
field max 0
field sum 0
field sqrsum 0
attr interpolationmode sample-hold
attr title "RC-Queue Size (rc1QueueSize)"
attr unit B
statistic Test.switch1.phy[1].shaper rc1QueueLength:stats
field count 1
field mean 0
field stddev -nan
field min 0
field max 0
field sum 0
field sqrsum 0
attr interpolationmode sample-hold
attr title "RC-Queue Length (rc1QueueLength)"
attr unit packets
statistic Test.switch1.phy[1].shaper rc0QueueSize:stats
field count 1
field mean 0
field stddev -nan
field min 0
field max 0
field sum 0
field sqrsum 0
attr interpolationmode sample-hold
attr title "RC-Queue Size (rc0QueueSize)"
attr unit B
statistic Test.switch1.phy[1].shaper rc0QueueLength:stats
field count 1
field mean 0
field stddev -nan
field min 0
field max 0
field sum 0
field sqrsum 0
attr interpolationmode sample-hold
attr title "RC-Queue Length (rc0QueueLength)"
attr unit packets
statistic Test.switch1.phy[1].shaper beQueueSize:stats
field count 1
field mean 0
field stddev -nan
field min 0
field max 0
field sum 0
field sqrsum 0
attr interpolationmode sample-hold
attr title "BE-Queue Size, stats"
attr unit B
statistic Test.switch1.phy[1].shaper beQueueLength:stats
field count 1
field mean 0
field stddev -nan
field min 0
field max 0
field sum 0
field sqrsum 0
attr interpolationmode sample-hold
attr title "BE-Queue Length, stats"
attr unit packets
statistic Test.switch1.phy[1].shaper pcfQueueSize:stats
field count 1
field mean 0
field stddev -nan
field min 0
field max 0
field sum 0
field sqrsum 0
attr interpolationmode sample-hold
attr title "BE-Queue Size, stats"
attr unit B
statistic Test.switch1.phy[1].shaper pcfQueueLength:stats
field count 1
field mean 0
field stddev -nan
field min 0
field max 0
field sum 0
field sqrsum 0
attr interpolationmode sample-hold
attr title "PCF-Queue Length, stats"
attr unit packets
statistic Test.switch1.phy[1].shaper ttQueueLength:stats
field count 1
field mean 0
field stddev -nan
field min 0
field max 0
field sum 0
field sqrsum 0
attr interpolationmode sample-hold
attr title "TT-Queue Length, stats"
attr unit packets
scalar Test.switch1.phy[1].inControl dropped:count 0
attr interpolationmode none
attr source droppedPk
attr title "Unconfigured CT dropped, count"
attr unit packets
statistic Test.switch1.phy[1].inControl rxLatency:stats
field count 3
field mean 1.2258e-05
field stddev 1.6077746776922e-13
field min 1.2258e-05
field max 1.2258e-05
field sum 3.6774e-05
field sqrsum 4.50775692e-10
attr interpolationmode none
attr source messageAge(rxPk)
attr title "End-to-end latency (received), stats"
attr unit s
statistic Test.switch1.phy[1].inControl rxLatency:histogram
field count 3
field mean 1.2258e-05
field stddev 1.6077746776922e-13
field min 1.2258e-05
field max 1.2258e-05
field sum 3.6774e-05
field sqrsum 4.50775692e-10
attr interpolationmode none
attr source messageAge(rxPk)
attr title "End-to-end latency (received), histogram"
attr unit s
bin	-inf	0
bin	0	3
bin	0.01	0
bin	0.02	0
bin	0.03	0
bin	0.04	0
bin	0.05	0
bin	0.06	0
bin	0.07	0
bin	0.08	0
bin	0.09	0
bin	0.1	0
bin	0.11	0
bin	0.12	0
bin	0.13	0
bin	0.14	0
bin	0.15	0
bin	0.16	0
bin	0.17	0
bin	0.18	0
bin	0.19	0
bin	0.2	0
bin	0.21	0
bin	0.22	0
bin	0.23	0
bin	0.24	0
bin	0.25	0
bin	0.26	0
bin	0.27	0
bin	0.28	0
bin	0.29	0
bin	0.3	0
bin	0.31	0
bin	0.32	0
bin	0.33	0
bin	0.34	0
bin	0.35	0
bin	0.36	0
bin	0.37	0
bin	0.38	0
bin	0.39	0
bin	0.4	0
bin	0.41	0
bin	0.42	0
bin	0.43	0
bin	0.44	0
bin	0.45	0
bin	0.46	0
bin	0.47	0
bin	0.48	0
bin	0.49	0
bin	0.5	0
bin	0.51	0
scalar Test.switch1.phy[1].mac "simulated time" 0.001
scalar Test.switch1.phy[1].mac full-duplex 1
scalar Test.switch1.phy[1].mac "frames/sec sent" 0
scalar Test.switch1.phy[1].mac "frames/sec rcvd" 3000
scalar Test.switch1.phy[1].mac "bits/sec sent" 0
scalar Test.switch1.phy[1].mac "bits/sec rcvd" 36432000
scalar Test.switch1.phy[1].mac "rx channel idle (%)" 96.3376
scalar Test.switch1.phy[1].mac "rx channel utilization (%)" 3.6624
scalar Test.switch1.phy[1].mac droppedPkNotForUs:count 0
attr interpolationmode none
attr source dropPkNotForUs
attr title "packets dropped/not for us, count"
scalar Test.switch1.phy[1].mac droppedPkNotForUs:sum(packetBytes) 0
attr interpolationmode none
attr source dropPkNotForUs
attr title "packets dropped/not for us, sum(packetBytes)"
scalar Test.switch1.phy[1].mac droppedPkIfaceDown:count 0
attr interpolationmode none
attr source dropPkIfaceDown
attr title "packets dropped/interface down, count"
scalar Test.switch1.phy[1].mac droppedPkIfaceDown:sum(packetBytes) 0
attr interpolationmode none
attr source dropPkIfaceDown
attr title "packets dropped/interface down, sum(packetBytes)"
scalar Test.switch1.phy[1].mac droppedPkBitError:count 0
attr interpolationmode none
attr source dropPkBitError
attr title "packets dropped/bit error, count"
scalar Test.switch1.phy[1].mac droppedPkBitError:sum(packetBytes) 0
attr interpolationmode none
attr source dropPkBitError
attr title "packets dropped/bit error, sum(packetBytes)"
scalar Test.switch1.phy[1].mac rxPkFromHL:count 0
attr interpolationmode none
attr source rxPkFromHL
attr title "packet bytes from higher layer, count"
scalar Test.switch1.phy[1].mac rxPkFromHL:sum(packetBytes) 0
attr interpolationmode none
attr source rxPkFromHL
attr title "packet bytes from higher layer, sum(packetBytes)"
scalar Test.switch1.phy[1].mac rxPausePkUnits:count 0
attr interpolationmode none
attr title "pause units received, count"
scalar Test.switch1.phy[1].mac rxPausePkUnits:sum 0
attr interpolationmode none
attr title "pause units received, sum"
scalar Test.switch1.phy[1].mac txPausePkUnits:count 0
attr interpolationmode none
attr title "pause units sent, count"
scalar Test.switch1.phy[1].mac txPausePkUnits:sum 0
attr interpolationmode none
attr title "pause units sent, sum"
scalar Test.switch1.phy[1].mac rxPkOk:count 3
attr interpolationmode none
attr source rxPkOk
attr title "packets received OK, count"
scalar Test.switch1.phy[1].mac rxPkOk:sum(packetBytes) 4554
attr interpolationmode none
attr source rxPkOk
attr title "packets received OK, sum(packetBytes)"
scalar Test.switch1.phy[1].mac txPk:count 0
attr interpolationmode none
attr source txPk
attr title "packets transmitted, count"
scalar Test.switch1.phy[1].mac txPk:sum(packetBytes) 0
attr interpolationmode none
attr source txPk
attr title "packets transmitted, sum(packetBytes)"
scalar Test.switch1.phy[1].mac passedUpPk:count 3
attr interpolationmode none
attr source packetSentToUpper
attr title "packets passed to higher layer, count"
scalar Test.switch1.phy[1].mac passedUpPk:sum(packetBytes) 4554
attr interpolationmode none
attr source packetSentToUpper
attr title "packets passed to higher layer, sum(packetBytes)"
scalar Test.switch1.scheduler.period[0] numberOfCycles:count 0
attr interpolationmode none
attr source newCycle
attr title "Number of cycle, count"
scalar Test.switch1.scheduler.period[1] numberOfCycles:count 1
attr interpolationmode none
attr source newCycle
attr title "Number of cycle, count"
scalar Test.switch1.vl_100_ctc dropped:count 0
attr source droppedPk
attr title "Packets Dropped, count"
scalar Test.switch1.vl_100_ctc rxPk:count 0
attr source rxPk
attr title "Received Packets, count"
scalar Test.switch1.vl_100_ctc rxBytes:sum(packetBytes) 0
attr interpolationmode none
attr source rxPk
attr title "Received Bytes, sum(packetBytes)"
attr unit B
statistic Test.switch1.vl_100_ctc latency:stats
field count 0
field mean -nan
field stddev -nan
field min -nan
field max -nan
field sum 0
field sqrsum 0
attr interpolationmode none
attr source messageAge(rxPk)
attr title "End-to-end latency, stats"
attr unit s
statistic Test.switch1.vl_100_ctc latency:histogram
field count 0
field mean -nan
field stddev -nan
field min -nan
field max -nan
field sum 0
field sqrsum 0
attr interpolationmode none
attr source messageAge(rxPk)
attr title "End-to-end latency, histogram"
attr unit s
bin	-inf	0
bin	0	0
bin	1	0
scalar Test.switch1.vl_100 rxPk:count 0
attr source rxPk
attr title "Received Packets, count"
attr unit packets
scalar Test.switch1.vl_100 rxBytes:sum(packetBytes) 0
attr interpolationmode none
attr source rxPk
attr title "Received Bytes, sum(packetBytes)"
attr unit B
statistic Test.switch1.vl_100 rxBytes:histogram(packetBytes)
field count 0
field mean -nan
field stddev -nan
field min -nan
field max -nan
field sum 0
field sqrsum 0
attr interpolationmode none
attr source rxPk
attr title "Received Bytes, histogram(packetBytes)"
attr unit B
bin	-inf	0
bin	0	0
bin	1	0
statistic Test.switch1.vl_100 rxLatency:stats
field count 0
field mean -nan
field stddev -nan
field min -nan
field max -nan
field sum 0
field sqrsum 0
attr interpolationmode none
attr source messageAge(rxPk)
attr title "End-to-end latency (received), stats"
attr unit s
statistic Test.switch1.vl_100 rxLatency:histogram
field count 0
field mean -nan
field stddev -nan
field min -nan
field max -nan
field sum 0
field sqrsum 0
attr interpolationmode none
attr source messageAge(rxPk)
attr title "End-to-end latency (received), histogram"
attr unit s
bin	-inf	0
bin	0	0
bin	1	0
scalar Test.switch1.vl_100 txPk:count 0
attr source txPk
attr title "Transmitted Packets, count"
attr unit packets
scalar Test.switch1.vl_100 txBytes:sum(packetBytes) 0
attr interpolationmode none
attr source txPk
attr title "Transmitted Bytes, sum(packetBytes)"
attr unit B
statistic Test.switch1.vl_100 txBytes:histogram(packetBytes)
field count 0
field mean -nan
field stddev -nan
field min -nan
field max -nan
field sum 0
field sqrsum 0
attr interpolationmode none
attr source txPk
attr title "Transmitted Bytes, histogram(packetBytes)"
attr unit B
bin	-inf	0
bin	0	0
bin	1	0
statistic Test.switch1.vl_100 txLatency:stats
field count 0
field mean -nan
field stddev -nan
field min -nan
field max -nan
field sum 0
field sqrsum 0
attr interpolationmode none
attr source messageAge(txPk)
attr title "End-to-end latency (transmitted), stats"
attr unit s
statistic Test.switch1.vl_100 txLatency:histogram
field count 0
field mean -nan
field stddev -nan
field min -nan
field max -nan
field sum 0
field sqrsum 0
attr interpolationmode none
attr source messageAge(txPk)
attr title "End-to-end latency (transmitted), histogram"
attr unit s
bin	-inf	0
bin	0	0
bin	1	0
scalar Test.switch1.vl_101_ctc dropped:count 0
attr source droppedPk
attr title "Packets Dropped, count"
scalar Test.switch1.vl_101_ctc rxPk:count 0
attr source rxPk
attr title "Received Packets, count"
scalar Test.switch1.vl_101_ctc rxBytes:sum(packetBytes) 0
attr interpolationmode none
attr source rxPk
attr title "Received Bytes, sum(packetBytes)"
attr unit B
statistic Test.switch1.vl_101_ctc latency:stats
field count 0
field mean -nan
field stddev -nan
field min -nan
field max -nan
field sum 0
field sqrsum 0
attr interpolationmode none
attr source messageAge(rxPk)
attr title "End-to-end latency, stats"
attr unit s
statistic Test.switch1.vl_101_ctc latency:histogram
field count 0
field mean -nan
field stddev -nan
field min -nan
field max -nan
field sum 0
field sqrsum 0
attr interpolationmode none
attr source messageAge(rxPk)
attr title "End-to-end latency, histogram"
attr unit s
bin	-inf	0
bin	0	0
bin	1	0
scalar Test.switch1.vl_101 dropped:count 0
attr source dropped
attr title "Dropped packets, count"
attr unit packets
statistic Test.switch1.vl_101 size:stats
field count 0
field mean -nan
field stddev -nan
field min -nan
field max -nan
field sum 0
field sqrsum 0
attr interpolationmode sample-hold
attr source size
attr title "Queue Size, stats"
attr unit B
statistic Test.switch1.vl_101 length:stats
field count 0
field mean -nan
field stddev -nan
field min -nan
field max -nan
field sum 0
field sqrsum 0
attr interpolationmode sample-hold
attr source length
attr title "Queue Length, stats"
attr unit packets
scalar Test.switch1.vl_101 rxPk:count 0
attr source rxPk
attr title "Received Packets, count"
attr unit packets
scalar Test.switch1.vl_101 rxBytes:sum(packetBytes) 0
attr interpolationmode none
attr source rxPk
attr title "Received Bytes, sum(packetBytes)"
attr unit B
statistic Test.switch1.vl_101 rxBytes:histogram(packetBytes)
field count 0
field mean -nan
field stddev -nan
field min -nan
field max -nan
field sum 0
field sqrsum 0
attr interpolationmode none
attr source rxPk
attr title "Received Bytes, histogram(packetBytes)"
attr unit B
bin	-inf	0
bin	0	0
bin	1	0
statistic Test.switch1.vl_101 rxLatency:stats
field count 0
field mean -nan
field stddev -nan
field min -nan
field max -nan
field sum 0
field sqrsum 0
attr interpolationmode none
attr source messageAge(rxPk)
attr title "End-to-end latency (received), stats"
attr unit s
statistic Test.switch1.vl_101 rxLatency:histogram
field count 0
field mean -nan
field stddev -nan
field min -nan
field max -nan
field sum 0
field sqrsum 0
attr interpolationmode none
attr source messageAge(rxPk)
attr title "End-to-end latency (received), histogram"
attr unit s
bin	-inf	0
bin	0	0
bin	1	0
scalar Test.switch1.vl_101 txPk:count 0
attr source txPk
attr title "Transmitted Packets, count"
attr unit packets
scalar Test.switch1.vl_101 txBytes:sum(packetBytes) 0
attr interpolationmode none
attr source txPk
attr title "Transmitted Bytes, sum(packetBytes)"
attr unit B
statistic Test.switch1.vl_101 txBytes:histogram(packetBytes)
field count 0
field mean -nan
field stddev -nan
field min -nan
field max -nan
field sum 0
field sqrsum 0
attr interpolationmode none
attr source txPk
attr title "Transmitted Bytes, histogram(packetBytes)"
attr unit B
bin	-inf	0
bin	0	0
bin	1	0
statistic Test.switch1.vl_101 txLatency:stats
field count 0
field mean -nan
field stddev -nan
field min -nan
field max -nan
field sum 0
field sqrsum 0
attr interpolationmode none
attr source messageAge(txPk)
attr title "End-to-end latency (transmitted), stats"
attr unit s
statistic Test.switch1.vl_101 txLatency:histogram
field count 0
field mean -nan
field stddev -nan
field min -nan
field max -nan
field sum 0
field sqrsum 0
attr interpolationmode none
attr source messageAge(txPk)
attr title "End-to-end latency (transmitted), histogram"
attr unit s
bin	-inf	0
bin	0	0
bin	1	0
scalar Test.switch1.vl_102_ctc dropped:count 0
attr source droppedPk
attr title "Packets Dropped, count"
scalar Test.switch1.vl_102_ctc rxPk:count 0
attr source rxPk
attr title "Received Packets, count"
scalar Test.switch1.vl_102_ctc rxBytes:sum(packetBytes) 0
attr interpolationmode none
attr source rxPk
attr title "Received Bytes, sum(packetBytes)"
attr unit B
statistic Test.switch1.vl_102_ctc latency:stats
field count 0
field mean -nan
field stddev -nan
field min -nan
field max -nan
field sum 0
field sqrsum 0
attr interpolationmode none
attr source messageAge(rxPk)
attr title "End-to-end latency, stats"
attr unit s
statistic Test.switch1.vl_102_ctc latency:histogram
field count 0
field mean -nan
field stddev -nan
field min -nan
field max -nan
field sum 0
field sqrsum 0
attr interpolationmode none
attr source messageAge(rxPk)
attr title "End-to-end latency, histogram"
attr unit s
bin	-inf	0
bin	0	0
bin	1	0
scalar Test.switch1.vl_102 rxPk:count 0
attr source rxPk
attr title "Received Packets, count"
attr unit packets
scalar Test.switch1.vl_102 rxBytes:sum(packetBytes) 0
attr interpolationmode none
attr source rxPk
attr title "Received Bytes, sum(packetBytes)"
attr unit B
statistic Test.switch1.vl_102 rxBytes:histogram(packetBytes)
field count 0
field mean -nan
field stddev -nan
field min -nan
field max -nan
field sum 0
field sqrsum 0
attr interpolationmode none
attr source rxPk
attr title "Received Bytes, histogram(packetBytes)"
attr unit B
bin	-inf	0
bin	0	0
bin	1	0
statistic Test.switch1.vl_102 rxLatency:stats
field count 0
field mean -nan
field stddev -nan
field min -nan
field max -nan
field sum 0
field sqrsum 0
attr interpolationmode none
attr source messageAge(rxPk)
attr title "End-to-end latency (received), stats"
attr unit s
statistic Test.switch1.vl_102 rxLatency:histogram
field count 0
field mean -nan
field stddev -nan
field min -nan
field max -nan
field sum 0
field sqrsum 0
attr interpolationmode none
attr source messageAge(rxPk)
attr title "End-to-end latency (received), histogram"
attr unit s
bin	-inf	0
bin	0	0
bin	1	0
scalar Test.switch1.vl_102 txPk:count 0
attr source txPk
attr title "Transmitted Packets, count"
attr unit packets
scalar Test.switch1.vl_102 txBytes:sum(packetBytes) 0
attr interpolationmode none
attr source txPk
attr title "Transmitted Bytes, sum(packetBytes)"
attr unit B
statistic Test.switch1.vl_102 txBytes:histogram(packetBytes)
field count 0
field mean -nan
field stddev -nan
field min -nan
field max -nan
field sum 0
field sqrsum 0
attr interpolationmode none
attr source txPk
attr title "Transmitted Bytes, histogram(packetBytes)"
attr unit B
bin	-inf	0
bin	0	0
bin	1	0
statistic Test.switch1.vl_102 txLatency:stats
field count 0
field mean -nan
field stddev -nan
field min -nan
field max -nan
field sum 0
field sqrsum 0
attr interpolationmode none
attr source messageAge(txPk)
attr title "End-to-end latency (transmitted), stats"
attr unit s
statistic Test.switch1.vl_102 txLatency:histogram
field count 0
field mean -nan
field stddev -nan
field min -nan
field max -nan
field sum 0
field sqrsum 0
attr interpolationmode none
attr source messageAge(txPk)
attr title "End-to-end latency (transmitted), histogram"
attr unit s
bin	-inf	0
bin	0	0
bin	1	0
statistic Test.node1.phy[0].shaper rc9QueueSize:stats
field count 1
field mean 0
field stddev -nan
field min 0
field max 0
field sum 0
field sqrsum 0
attr interpolationmode sample-hold
attr title "RC-Queue Size (rc9QueueSize)"
attr unit B
statistic Test.node1.phy[0].shaper rc9QueueLength:stats
field count 1
field mean 0
field stddev -nan
field min 0
field max 0
field sum 0
field sqrsum 0
attr interpolationmode sample-hold
attr title "RC-Queue Length (rc9QueueLength)"
attr unit packets
statistic Test.node1.phy[0].shaper rc8QueueSize:stats
field count 1
field mean 0
field stddev -nan
field min 0
field max 0
field sum 0
field sqrsum 0
attr interpolationmode sample-hold
attr title "RC-Queue Size (rc8QueueSize)"
attr unit B
statistic Test.node1.phy[0].shaper rc8QueueLength:stats
field count 1
field mean 0
field stddev -nan
field min 0
field max 0
field sum 0
field sqrsum 0
attr interpolationmode sample-hold
attr title "RC-Queue Length (rc8QueueLength)"
attr unit packets
statistic Test.node1.phy[0].shaper rc7QueueSize:stats
field count 1
field mean 0
field stddev -nan
field min 0
field max 0
field sum 0
field sqrsum 0
attr interpolationmode sample-hold
attr title "RC-Queue Size (rc7QueueSize)"
attr unit B
statistic Test.node1.phy[0].shaper rc7QueueLength:stats
field count 1
field mean 0
field stddev -nan
field min 0
field max 0
field sum 0
field sqrsum 0
attr interpolationmode sample-hold
attr title "RC-Queue Length (rc7QueueLength)"
attr unit packets
statistic Test.node1.phy[0].shaper rc6QueueSize:stats
field count 1
field mean 0
field stddev -nan
field min 0
field max 0
field sum 0
field sqrsum 0
attr interpolationmode sample-hold
attr title "RC-Queue Size (rc6QueueSize)"
attr unit B
statistic Test.node1.phy[0].shaper rc6QueueLength:stats
field count 1
field mean 0
field stddev -nan
field min 0
field max 0
field sum 0
field sqrsum 0
attr interpolationmode sample-hold
attr title "RC-Queue Length (rc6QueueLength)"
attr unit packets
statistic Test.node1.phy[0].shaper rc5QueueSize:stats
field count 1
field mean 0
field stddev -nan
field min 0
field max 0
field sum 0
field sqrsum 0
attr interpolationmode sample-hold
attr title "RC-Queue Size (rc5QueueSize)"
attr unit B
statistic Test.node1.phy[0].shaper rc5QueueLength:stats
field count 1
field mean 0
field stddev -nan
field min 0
field max 0
field sum 0
field sqrsum 0
attr interpolationmode sample-hold
attr title "RC-Queue Length (rc5QueueLength)"
attr unit packets
statistic Test.node1.phy[0].shaper rc4QueueSize:stats
field count 1
field mean 0
field stddev -nan
field min 0
field max 0
field sum 0
field sqrsum 0
attr interpolationmode sample-hold
attr title "RC-Queue Size (rc4QueueSize)"
attr unit B
statistic Test.node1.phy[0].shaper rc4QueueLength:stats
field count 1
field mean 0
field stddev -nan
field min 0
field max 0
field sum 0
field sqrsum 0
attr interpolationmode sample-hold
attr title "RC-Queue Length (rc4QueueLength)"
attr unit packets
statistic Test.node1.phy[0].shaper rc3QueueSize:stats
field count 1
field mean 0
field stddev -nan
field min 0
field max 0
field sum 0
field sqrsum 0
attr interpolationmode sample-hold
attr title "RC-Queue Size (rc3QueueSize)"
attr unit B
statistic Test.node1.phy[0].shaper rc3QueueLength:stats
field count 1
field mean 0
field stddev -nan
field min 0
field max 0
field sum 0
field sqrsum 0
attr interpolationmode sample-hold
attr title "RC-Queue Length (rc3QueueLength)"
attr unit packets
statistic Test.node1.phy[0].shaper rc2QueueSize:stats
field count 1
field mean 0
field stddev -nan
field min 0
field max 0
field sum 0
field sqrsum 0
attr interpolationmode sample-hold
attr title "RC-Queue Size (rc2QueueSize)"
attr unit B
statistic Test.node1.phy[0].shaper rc2QueueLength:stats
field count 1
field mean 0
field stddev -nan
field min 0
field max 0
field sum 0
field sqrsum 0
attr interpolationmode sample-hold
attr title "RC-Queue Length (rc2QueueLength)"
attr unit packets
statistic Test.node1.phy[0].shaper rc1QueueSize:stats
field count 1
field mean 0
field stddev -nan
field min 0
field max 0
field sum 0
field sqrsum 0
attr interpolationmode sample-hold
attr title "RC-Queue Size (rc1QueueSize)"
attr unit B
statistic Test.node1.phy[0].shaper rc1QueueLength:stats
field count 1
field mean 0
field stddev -nan
field min 0
field max 0
field sum 0
field sqrsum 0
attr interpolationmode sample-hold
attr title "RC-Queue Length (rc1QueueLength)"
attr unit packets
statistic Test.node1.phy[0].shaper rc0QueueSize:stats
field count 1
field mean 0
field stddev -nan
field min 0
field max 0
field sum 0
field sqrsum 0
attr interpolationmode sample-hold
attr title "RC-Queue Size (rc0QueueSize)"
attr unit B
statistic Test.node1.phy[0].shaper rc0QueueLength:stats
field count 1
field mean 0
field stddev -nan
field min 0
field max 0
field sum 0
field sqrsum 0
attr interpolationmode sample-hold
attr title "RC-Queue Length (rc0QueueLength)"
attr unit packets
statistic Test.node1.phy[0].shaper beQueueSize:stats
field count 1
field mean 0
field stddev -nan
field min 0
field max 0
field sum 0
field sqrsum 0
attr interpolationmode sample-hold
attr title "BE-Queue Size, stats"
attr unit B
statistic Test.node1.phy[0].shaper beQueueLength:stats
field count 1
field mean 0
field stddev -nan
field min 0
field max 0
field sum 0
field sqrsum 0
attr interpolationmode sample-hold
attr title "BE-Queue Length, stats"
attr unit packets
statistic Test.node1.phy[0].shaper pcfQueueSize:stats
field count 1
field mean 0
field stddev -nan
field min 0
field max 0
field sum 0
field sqrsum 0
attr interpolationmode sample-hold
attr title "BE-Queue Size, stats"
attr unit B
statistic Test.node1.phy[0].shaper pcfQueueLength:stats
field count 1
field mean 0
field stddev -nan
field min 0
field max 0
field sum 0
field sqrsum 0
attr interpolationmode sample-hold
attr title "PCF-Queue Length, stats"
attr unit packets
statistic Test.node1.phy[0].shaper ttQueueLength:stats
field count 1
field mean 0
field stddev -nan
field min 0
field max 0
field sum 0
field sqrsum 0
attr interpolationmode sample-hold
attr title "TT-Queue Length, stats"
attr unit packets
scalar Test.node1.phy[0].inControl dropped:count 0
attr interpolationmode none
attr source droppedPk
attr title "Unconfigured CT dropped, count"
attr unit packets
statistic Test.node1.phy[0].inControl rxLatency:stats
field count 0
field mean -nan
field stddev -nan
field min -nan
field max -nan
field sum 0
field sqrsum 0
attr interpolationmode none
attr source messageAge(rxPk)
attr title "End-to-end latency (received), stats"
attr unit s
statistic Test.node1.phy[0].inControl rxLatency:histogram
field count 0
field mean -nan
field stddev -nan
field min -nan
field max -nan
field sum 0
field sqrsum 0
attr interpolationmode none
attr source messageAge(rxPk)
attr title "End-to-end latency (received), histogram"
attr unit s
bin	-inf	0
bin	0	0
bin	1	0
scalar Test.node1.phy[0].mac "simulated time" 0.001
scalar Test.node1.phy[0].mac full-duplex 1
scalar Test.node1.phy[0].mac "frames/sec sent" 3000
scalar Test.node1.phy[0].mac "frames/sec rcvd" 0
scalar Test.node1.phy[0].mac "bits/sec sent" 36432000
scalar Test.node1.phy[0].mac "bits/sec rcvd" 0
scalar Test.node1.phy[0].mac "rx channel idle (%)" 100
scalar Test.node1.phy[0].mac "rx channel utilization (%)" 0
scalar Test.node1.phy[0].mac droppedPkNotForUs:count 0
attr interpolationmode none
attr source dropPkNotForUs
attr title "packets dropped/not for us, count"
scalar Test.node1.phy[0].mac droppedPkNotForUs:sum(packetBytes) 0
attr interpolationmode none
attr source dropPkNotForUs
attr title "packets dropped/not for us, sum(packetBytes)"
scalar Test.node1.phy[0].mac droppedPkIfaceDown:count 0
attr interpolationmode none
attr source dropPkIfaceDown
attr title "packets dropped/interface down, count"
scalar Test.node1.phy[0].mac droppedPkIfaceDown:sum(packetBytes) 0
attr interpolationmode none
attr source dropPkIfaceDown
attr title "packets dropped/interface down, sum(packetBytes)"
scalar Test.node1.phy[0].mac droppedPkBitError:count 0
attr interpolationmode none
attr source dropPkBitError
attr title "packets dropped/bit error, count"
scalar Test.node1.phy[0].mac droppedPkBitError:sum(packetBytes) 0
attr interpolationmode none
attr source dropPkBitError
attr title "packets dropped/bit error, sum(packetBytes)"
scalar Test.node1.phy[0].mac rxPkFromHL:count 3
attr interpolationmode none
attr source rxPkFromHL
attr title "packet bytes from higher layer, count"
scalar Test.node1.phy[0].mac rxPkFromHL:sum(packetBytes) 4554
attr interpolationmode none
attr source rxPkFromHL
attr title "packet bytes from higher layer, sum(packetBytes)"
scalar Test.node1.phy[0].mac rxPausePkUnits:count 0
attr interpolationmode none
attr title "pause units received, count"
scalar Test.node1.phy[0].mac rxPausePkUnits:sum 0
attr interpolationmode none
attr title "pause units received, sum"
scalar Test.node1.phy[0].mac txPausePkUnits:count 0
attr interpolationmode none
attr title "pause units sent, count"
scalar Test.node1.phy[0].mac txPausePkUnits:sum 0
attr interpolationmode none
attr title "pause units sent, sum"
scalar Test.node1.phy[0].mac rxPkOk:count 0
attr interpolationmode none
attr source rxPkOk
attr title "packets received OK, count"
scalar Test.node1.phy[0].mac rxPkOk:sum(packetBytes) 0
attr interpolationmode none
attr source rxPkOk
attr title "packets received OK, sum(packetBytes)"
scalar Test.node1.phy[0].mac txPk:count 3
attr interpolationmode none
attr source txPk
attr title "packets transmitted, count"
scalar Test.node1.phy[0].mac txPk:sum(packetBytes) 4554
attr interpolationmode none
attr source txPk
attr title "packets transmitted, sum(packetBytes)"
scalar Test.node1.phy[0].mac passedUpPk:count 0
attr interpolationmode none
attr source packetSentToUpper
attr title "packets passed to higher layer, count"
scalar Test.node1.phy[0].mac passedUpPk:sum(packetBytes) 0
attr interpolationmode none
attr source packetSentToUpper
attr title "packets passed to higher layer, sum(packetBytes)"
scalar Test.node1.encap pauseSent:count 0
attr title "pause sent, count"
scalar Test.node1.encap pauseSent:sum 0
attr title "pause sent, sum"
scalar Test.node1.encap decapPk:count 0
attr interpolationmode none
attr source decapPk
attr title "packets decapsulated, count"
scalar Test.node1.encap decapPk:sum(packetBytes) 0
attr interpolationmode none
attr source decapPk
attr title "packets decapsulated, sum(packetBytes)"
scalar Test.node1.encap encapPk:count 0
attr interpolationmode none
attr source encapPk
attr title "packets encapsulated, count"
scalar Test.node1.encap encapPk:sum(packetBytes) 0
attr interpolationmode none
attr source encapPk
attr title "packets encapsulated, sum(packetBytes)"
scalar Test.node1.scheduler.period[0] numberOfCycles:count 0
attr interpolationmode none
attr source newCycle
attr title "Number of cycle, count"
scalar Test.node1.scheduler.period[1] numberOfCycles:count 0
attr interpolationmode none
attr source newCycle
attr title "Number of cycle, count"
statistic Test.node1.app[0] payloadOverTime:stats
field count 1
field mean 46
field stddev -nan
field min 46
field max 46
field sum 46
field sqrsum 2116
attr interpolationmode linear
attr source payloadSignal
attr title "payload over time, stats"
attr unit B
statistic Test.node1.app[0] payloadOverTime:histogram
field count 1
field mean 46
field stddev -nan
field min 46
field max 46
field sum 46
field sqrsum 2116
attr interpolationmode linear
attr source payloadSignal
attr title "payload over time, histogram"
attr unit B
bin	-inf	0
bin	45	0
bin	46	1
bin	47	0
statistic Test.node1.app[1] payloadOverTime:stats
field count 0
field mean -nan
field stddev -nan
field min -nan
field max -nan
field sum 0
field sqrsum 0
attr interpolationmode linear
attr source payloadSignal
attr title "payload over time, stats"
attr unit B
statistic Test.node1.app[1] payloadOverTime:histogram
field count 0
field mean -nan
field stddev -nan
field min -nan
field max -nan
field sum 0
field sqrsum 0
attr interpolationmode linear
attr source payloadSignal
attr title "payload over time, histogram"
attr unit B
bin	-inf	0
bin	0	0
bin	1	0
statistic Test.node1.app[2] payloadOverTime:stats
field count 3
field mean 1500
field stddev 0
field min 1500
field max 1500
field sum 4500
field sqrsum 6750000
attr interpolationmode linear
attr source payloadSignal
attr title "payload over time, stats"
attr unit B
statistic Test.node1.app[2] payloadOverTime:histogram
field count 3
field mean 1500
field stddev 0
field min 1500
field max 1500
field sum 4500
field sqrsum 6750000
attr interpolationmode linear
attr source payloadSignal
attr title "payload over time, histogram"
attr unit B
bin	-inf	0
bin	1499	0
bin	1500	3
bin	1501	0
statistic Test.node1.app[2] sendIntervalOverTime:stats
field count 3
field mean 0.00037802799133333
field stddev 3.4775427441202e-05
field min 0.000338443809
field max 0.00040366386
field sum 0.001134083974
field sqrsum 4.3113414740198e-07
attr interpolationmode linear
attr source intervalSignal
attr title "send interval over time, stats"
attr unit s
statistic Test.node1.app[2] sendIntervalOverTime:histogram
field count 3
field mean 0.00037802799133333
field stddev 3.4775427441202e-05
field min 0.000338443809
field max 0.00040366386
field sum 0.001134083974
field sqrsum 4.3113414740198e-07
attr interpolationmode linear
attr source intervalSignal
attr title "send interval over time, histogram"
attr unit s
bin	-inf	0
bin	0.000322	0
bin	0.000324	0
bin	0.000326	0
bin	0.000328	0
bin	0.00033	0
bin	0.000332	0
bin	0.000334	0
bin	0.000336	0
bin	0.000338	1
bin	0.00034	0
bin	0.000342	0
bin	0.000344	0
bin	0.000346	0
bin	0.000348	0
bin	0.00035	0
bin	0.000352	0
bin	0.000354	0
bin	0.000356	0
bin	0.000358	0
bin	0.00036	0
bin	0.000362	0
bin	0.000364	0
bin	0.000366	0
bin	0.000368	0
bin	0.00037	0
bin	0.000372	0
bin	0.000374	0
bin	0.000376	0
bin	0.000378	0
bin	0.00038	0
bin	0.000382	0
bin	0.000384	0
bin	0.000386	0
bin	0.000388	0
bin	0.00039	1
bin	0.000392	0
bin	0.000394	0
bin	0.000396	0
bin	0.000398	0
bin	0.0004	0
bin	0.000402	1
bin	0.000404	0
bin	0.000406	0
bin	0.000408	0
bin	0.00041	0
bin	0.000412	0
bin	0.000414	0
bin	0.000416	0
bin	0.000418	0
bin	0.00042	0
scalar Test.node1.bgIn dropped:sum 0
attr source dropped
attr title "Dropped frames, sum"
attr unit packets
scalar Test.node1.bgIn rxPk:count 0
attr source rxPk
attr title "Received Packets, count"
attr unit packets
scalar Test.node1.bgIn rxBytes:sum(packetBytes) 0
attr interpolationmode none
attr source rxPk
attr title "Received Bytes, sum(packetBytes)"
attr unit B
statistic Test.node1.bgIn rxBytes:histogram(packetBytes)
field count 0
field mean -nan
field stddev -nan
field min -nan
field max -nan
field sum 0
field sqrsum 0
attr interpolationmode none
attr source rxPk
attr title "Received Bytes, histogram(packetBytes)"
attr unit B
bin	-inf	0
bin	0	0
bin	1	0
statistic Test.node1.bgIn rxLatency:stats
field count 0
field mean -nan
field stddev -nan
field min -nan
field max -nan
field sum 0
field sqrsum 0
attr interpolationmode none
attr source messageAge(rxPk)
attr title "End-to-end latency (received), stats"
attr unit s
statistic Test.node1.bgIn rxLatency:histogram
field count 0
field mean -nan
field stddev -nan
field min -nan
field max -nan
field sum 0
field sqrsum 0
attr interpolationmode none
attr source messageAge(rxPk)
attr title "End-to-end latency (received), histogram"
attr unit s
bin	-inf	0
bin	0	0
bin	1	0
scalar Test.node1.bgIn txPk:count 0
attr source txPk
attr title "Transmitted Packets, count"
attr unit packets
scalar Test.node1.bgIn txBytes:sum(packetBytes) 0
attr interpolationmode none
attr source txPk
attr title "Transmitted Bytes, sum(packetBytes)"
attr unit B
statistic Test.node1.bgIn txBytes:histogram(packetBytes)
field count 0
field mean -nan
field stddev -nan
field min -nan
field max -nan
field sum 0
field sqrsum 0
attr interpolationmode none
attr source txPk
attr title "Transmitted Bytes, histogram(packetBytes)"
attr unit B
bin	-inf	0
bin	0	0
bin	1	0
statistic Test.node1.bgIn txLatency:stats
field count 0
field mean -nan
field stddev -nan
field min -nan
field max -nan
field sum 0
field sqrsum 0
attr interpolationmode none
attr source messageAge(txPk)
attr title "End-to-end latency (transmitted), stats"
attr unit s
statistic Test.node1.bgIn txLatency:histogram
field count 0
field mean -nan
field stddev -nan
field min -nan
field max -nan
field sum 0
field sqrsum 0
attr interpolationmode none
attr source messageAge(txPk)
attr title "End-to-end latency (transmitted), histogram"
attr unit s
bin	-inf	0
bin	0	0
bin	1	0
scalar Test.node1.bgOut dropped:sum 0
attr source dropped
attr title "Dropped frames, sum"
attr unit packets
scalar Test.node1.bgOut rxPk:count 3
attr source rxPk
attr title "Received Packets, count"
attr unit packets
scalar Test.node1.bgOut rxBytes:sum(packetBytes) 4554
attr interpolationmode none
attr source rxPk
attr title "Received Bytes, sum(packetBytes)"
attr unit B
statistic Test.node1.bgOut rxBytes:histogram(packetBytes)
field count 3
field mean 1518
field stddev 0
field min 1518
field max 1518
field sum 4554
field sqrsum 6912972
attr interpolationmode none
attr source rxPk
attr title "Received Bytes, histogram(packetBytes)"
attr unit B
bin	-inf	0
bin	1517	0
bin	1518	3
bin	1519	0
statistic Test.node1.bgOut rxLatency:stats
field count 3
field mean 0
field stddev 0
field min 0
field max 0
field sum 0
field sqrsum 0
attr interpolationmode none
attr source messageAge(rxPk)
attr title "End-to-end latency (received), stats"
attr unit s
statistic Test.node1.bgOut rxLatency:histogram
field count 3
field mean 0
field stddev 0
field min 0
field max 0
field sum 0
field sqrsum 0
attr interpolationmode none
attr source messageAge(rxPk)
attr title "End-to-end latency (received), histogram"
attr unit s
bin	-inf	0
bin	-0.5	0
bin	-0.48	0
bin	-0.46	0
bin	-0.44	0
bin	-0.42	0
bin	-0.4	0
bin	-0.38	0
bin	-0.36	0
bin	-0.34	0
bin	-0.32	0
bin	-0.3	0
bin	-0.28	0
bin	-0.26	0
bin	-0.24	0
bin	-0.22	0
bin	-0.2	0
bin	-0.18	0
bin	-0.16	0
bin	-0.14	0
bin	-0.12	0
bin	-0.1	0
bin	-0.08	0
bin	-0.06	0
bin	-0.04	0
bin	-0.02	0
bin	0	3
bin	0.02	0
bin	0.04	0
bin	0.06	0
bin	0.08	0
bin	0.1	0
bin	0.12	0
bin	0.14	0
bin	0.16	0
bin	0.18	0
bin	0.2	0
bin	0.22	0
bin	0.24	0
bin	0.26	0
bin	0.28	0
bin	0.3	0
bin	0.32	0
bin	0.34	0
bin	0.36	0
bin	0.38	0
bin	0.4	0
bin	0.42	0
bin	0.44	0
bin	0.46	0
bin	0.48	0
bin	0.5	0
scalar Test.node1.bgOut txPk:count 3
attr source txPk
attr title "Transmitted Packets, count"
attr unit packets
scalar Test.node1.bgOut txBytes:sum(packetBytes) 4554
attr interpolationmode none
attr source txPk
attr title "Transmitted Bytes, sum(packetBytes)"
attr unit B
statistic Test.node1.bgOut txBytes:histogram(packetBytes)
field count 3
field mean 1518
field stddev 0
field min 1518
field max 1518
field sum 4554
field sqrsum 6912972
attr interpolationmode none
attr source txPk
attr title "Transmitted Bytes, histogram(packetBytes)"
attr unit B
bin	-inf	0
bin	1517	0
bin	1518	3
bin	1519	0
statistic Test.node1.bgOut txLatency:stats
field count 3
field mean 0
field stddev 0
field min 0
field max 0
field sum 0
field sqrsum 0
attr interpolationmode none
attr source messageAge(txPk)
attr title "End-to-end latency (transmitted), stats"
attr unit s
statistic Test.node1.bgOut txLatency:histogram
field count 3
field mean 0
field stddev 0
field min 0
field max 0
field sum 0
field sqrsum 0
attr interpolationmode none
attr source messageAge(txPk)
attr title "End-to-end latency (transmitted), histogram"
attr unit s
bin	-inf	0
bin	-0.5	0
bin	-0.48	0
bin	-0.46	0
bin	-0.44	0
bin	-0.42	0
bin	-0.4	0
bin	-0.38	0
bin	-0.36	0
bin	-0.34	0
bin	-0.32	0
bin	-0.3	0
bin	-0.28	0
bin	-0.26	0
bin	-0.24	0
bin	-0.22	0
bin	-0.2	0
bin	-0.18	0
bin	-0.16	0
bin	-0.14	0
bin	-0.12	0
bin	-0.1	0
bin	-0.08	0
bin	-0.06	0
bin	-0.04	0
bin	-0.02	0
bin	0	3
bin	0.02	0
bin	0.04	0
bin	0.06	0
bin	0.08	0
bin	0.1	0
bin	0.12	0
bin	0.14	0
bin	0.16	0
bin	0.18	0
bin	0.2	0
bin	0.22	0
bin	0.24	0
bin	0.26	0
bin	0.28	0
bin	0.3	0
bin	0.32	0
bin	0.34	0
bin	0.36	0
bin	0.38	0
bin	0.4	0
bin	0.42	0
bin	0.44	0
bin	0.46	0
bin	0.48	0
bin	0.5	0
scalar Test.node1.vl_100_ctc dropped:count 0
attr source droppedPk
attr title "Packets Dropped, count"
scalar Test.node1.vl_100_ctc rxPk:count 1
attr source rxPk
attr title "Received Packets, count"
scalar Test.node1.vl_100_ctc rxBytes:sum(packetBytes) 64
attr interpolationmode none
attr source rxPk
attr title "Received Bytes, sum(packetBytes)"
attr unit B
statistic Test.node1.vl_100_ctc latency:stats
field count 1
field mean 0
field stddev -nan
field min 0
field max 0
field sum 0
field sqrsum 0
attr interpolationmode none
attr source messageAge(rxPk)
attr title "End-to-end latency, stats"
attr unit s
statistic Test.node1.vl_100_ctc latency:histogram
field count 1
field mean 0
field stddev -nan
field min 0
field max 0
field sum 0
field sqrsum 0
attr interpolationmode none
attr source messageAge(rxPk)
attr title "End-to-end latency, histogram"
attr unit s
bin	-inf	0
bin	-0.5	0
bin	-0.48	0
bin	-0.46	0
bin	-0.44	0
bin	-0.42	0
bin	-0.4	0
bin	-0.38	0
bin	-0.36	0
bin	-0.34	0
bin	-0.32	0
bin	-0.3	0
bin	-0.28	0
bin	-0.26	0
bin	-0.24	0
bin	-0.22	0
bin	-0.2	0
bin	-0.18	0
bin	-0.16	0
bin	-0.14	0
bin	-0.12	0
bin	-0.1	0
bin	-0.08	0
bin	-0.06	0
bin	-0.04	0
bin	-0.02	0
bin	0	1
bin	0.02	0
bin	0.04	0
bin	0.06	0
bin	0.08	0
bin	0.1	0
bin	0.12	0
bin	0.14	0
bin	0.16	0
bin	0.18	0
bin	0.2	0
bin	0.22	0
bin	0.24	0
bin	0.26	0
bin	0.28	0
bin	0.3	0
bin	0.32	0
bin	0.34	0
bin	0.36	0
bin	0.38	0
bin	0.4	0
bin	0.42	0
bin	0.44	0
bin	0.46	0
bin	0.48	0
bin	0.5	0
scalar Test.node1.vl_100 rxPk:count 1
attr source rxPk
attr title "Received Packets, count"
attr unit packets
scalar Test.node1.vl_100 rxBytes:sum(packetBytes) 64
attr interpolationmode none
attr source rxPk
attr title "Received Bytes, sum(packetBytes)"
attr unit B
statistic Test.node1.vl_100 rxBytes:histogram(packetBytes)
field count 1
field mean 64
field stddev -nan
field min 64
field max 64
field sum 64
field sqrsum 4096
attr interpolationmode none
attr source rxPk
attr title "Received Bytes, histogram(packetBytes)"
attr unit B
bin	-inf	0
bin	63	0
bin	64	1
bin	65	0
statistic Test.node1.vl_100 rxLatency:stats
field count 1
field mean 1e-05
field stddev -nan
field min 1e-05
field max 1e-05
field sum 1e-05
field sqrsum 1e-10
attr interpolationmode none
attr source messageAge(rxPk)
attr title "End-to-end latency (received), stats"
attr unit s
statistic Test.node1.vl_100 rxLatency:histogram
field count 1
field mean 1e-05
field stddev -nan
field min 1e-05
field max 1e-05
field sum 1e-05
field sqrsum 1e-10
attr interpolationmode none
attr source messageAge(rxPk)
attr title "End-to-end latency (received), histogram"
attr unit s
bin	-inf	0
bin	0	1
bin	0.01	0
bin	0.02	0
bin	0.03	0
bin	0.04	0
bin	0.05	0
bin	0.06	0
bin	0.07	0
bin	0.08	0
bin	0.09	0
bin	0.1	0
bin	0.11	0
bin	0.12	0
bin	0.13	0
bin	0.14	0
bin	0.15	0
bin	0.16	0
bin	0.17	0
bin	0.18	0
bin	0.19	0
bin	0.2	0
bin	0.21	0
bin	0.22	0
bin	0.23	0
bin	0.24	0
bin	0.25	0
bin	0.26	0
bin	0.27	0
bin	0.28	0
bin	0.29	0
bin	0.3	0
bin	0.31	0
bin	0.32	0
bin	0.33	0
bin	0.34	0
bin	0.35	0
bin	0.36	0
bin	0.37	0
bin	0.38	0
bin	0.39	0
bin	0.4	0
bin	0.41	0
bin	0.42	0
bin	0.43	0
bin	0.44	0
bin	0.45	0
bin	0.46	0
bin	0.47	0
bin	0.48	0
bin	0.49	0
bin	0.5	0
bin	0.51	0
scalar Test.node1.vl_100 txPk:count 0
attr source txPk
attr title "Transmitted Packets, count"
attr unit packets
scalar Test.node1.vl_100 txBytes:sum(packetBytes) 0
attr interpolationmode none
attr source txPk
attr title "Transmitted Bytes, sum(packetBytes)"
attr unit B
statistic Test.node1.vl_100 txBytes:histogram(packetBytes)
field count 0
field mean -nan
field stddev -nan
field min -nan
field max -nan
field sum 0
field sqrsum 0
attr interpolationmode none
attr source txPk
attr title "Transmitted Bytes, histogram(packetBytes)"
attr unit B
bin	-inf	0
bin	0	0
bin	1	0
statistic Test.node1.vl_100 txLatency:stats
field count 0
field mean -nan
field stddev -nan
field min -nan
field max -nan
field sum 0
field sqrsum 0
attr interpolationmode none
attr source messageAge(txPk)
attr title "End-to-end latency (transmitted), stats"
attr unit s
statistic Test.node1.vl_100 txLatency:histogram
field count 0
field mean -nan
field stddev -nan
field min -nan
field max -nan
field sum 0
field sqrsum 0
attr interpolationmode none
attr source messageAge(txPk)
attr title "End-to-end latency (transmitted), histogram"
attr unit s
bin	-inf	0
bin	0	0
bin	1	0
scalar Test.node1.vl_102_ctc dropped:count 0
attr source droppedPk
attr title "Packets Dropped, count"
scalar Test.node1.vl_102_ctc rxPk:count 0
attr source rxPk
attr title "Received Packets, count"
scalar Test.node1.vl_102_ctc rxBytes:sum(packetBytes) 0
attr interpolationmode none
attr source rxPk
attr title "Received Bytes, sum(packetBytes)"
attr unit B
statistic Test.node1.vl_102_ctc latency:stats
field count 0
field mean -nan
field stddev -nan
field min -nan
field max -nan
field sum 0
field sqrsum 0
attr interpolationmode none
attr source messageAge(rxPk)
attr title "End-to-end latency, stats"
attr unit s
statistic Test.node1.vl_102_ctc latency:histogram
field count 0
field mean -nan
field stddev -nan
field min -nan
field max -nan
field sum 0
field sqrsum 0
attr interpolationmode none
attr source messageAge(rxPk)
attr title "End-to-end latency, histogram"
attr unit s
bin	-inf	0
bin	0	0
bin	1	0
scalar Test.node1.vl_102 rxPk:count 0
attr source rxPk
attr title "Received Packets, count"
attr unit packets
scalar Test.node1.vl_102 rxBytes:sum(packetBytes) 0
attr interpolationmode none
attr source rxPk
attr title "Received Bytes, sum(packetBytes)"
attr unit B
statistic Test.node1.vl_102 rxBytes:histogram(packetBytes)
field count 0
field mean -nan
field stddev -nan
field min -nan
field max -nan
field sum 0
field sqrsum 0
attr interpolationmode none
attr source rxPk
attr title "Received Bytes, histogram(packetBytes)"
attr unit B
bin	-inf	0
bin	0	0
bin	1	0
statistic Test.node1.vl_102 rxLatency:stats
field count 0
field mean -nan
field stddev -nan
field min -nan
field max -nan
field sum 0
field sqrsum 0
attr interpolationmode none
attr source messageAge(rxPk)
attr title "End-to-end latency (received), stats"
attr unit s
statistic Test.node1.vl_102 rxLatency:histogram
field count 0
field mean -nan
field stddev -nan
field min -nan
field max -nan
field sum 0
field sqrsum 0
attr interpolationmode none
attr source messageAge(rxPk)
attr title "End-to-end latency (received), histogram"
attr unit s
bin	-inf	0
bin	0	0
bin	1	0
scalar Test.node1.vl_102 txPk:count 0
attr source txPk
attr title "Transmitted Packets, count"
attr unit packets
scalar Test.node1.vl_102 txBytes:sum(packetBytes) 0
attr interpolationmode none
attr source txPk
attr title "Transmitted Bytes, sum(packetBytes)"
attr unit B
statistic Test.node1.vl_102 txBytes:histogram(packetBytes)
field count 0
field mean -nan
field stddev -nan
field min -nan
field max -nan
field sum 0
field sqrsum 0
attr interpolationmode none
attr source txPk
attr title "Transmitted Bytes, histogram(packetBytes)"
attr unit B
bin	-inf	0
bin	0	0
bin	1	0
statistic Test.node1.vl_102 txLatency:stats
field count 0
field mean -nan
field stddev -nan
field min -nan
field max -nan
field sum 0
field sqrsum 0
attr interpolationmode none
attr source messageAge(txPk)
attr title "End-to-end latency (transmitted), stats"
attr unit s
statistic Test.node1.vl_102 txLatency:histogram
field count 0
field mean -nan
field stddev -nan
field min -nan
field max -nan
field sum 0
field sqrsum 0
attr interpolationmode none
attr source messageAge(txPk)
attr title "End-to-end latency (transmitted), histogram"
attr unit s
bin	-inf	0
bin	0	0
bin	1	0
statistic Test.node2.phy[0].shaper rc9QueueSize:stats
field count 1
field mean 0
field stddev -nan
field min 0
field max 0
field sum 0
field sqrsum 0
attr interpolationmode sample-hold
attr title "RC-Queue Size (rc9QueueSize)"
attr unit B
statistic Test.node2.phy[0].shaper rc9QueueLength:stats
field count 1
field mean 0
field stddev -nan
field min 0
field max 0
field sum 0
field sqrsum 0
attr interpolationmode sample-hold
attr title "RC-Queue Length (rc9QueueLength)"
attr unit packets
statistic Test.node2.phy[0].shaper rc8QueueSize:stats
field count 1
field mean 0
field stddev -nan
field min 0
field max 0
field sum 0
field sqrsum 0
attr interpolationmode sample-hold
attr title "RC-Queue Size (rc8QueueSize)"
attr unit B
statistic Test.node2.phy[0].shaper rc8QueueLength:stats
field count 1
field mean 0
field stddev -nan
field min 0
field max 0
field sum 0
field sqrsum 0
attr interpolationmode sample-hold
attr title "RC-Queue Length (rc8QueueLength)"
attr unit packets
statistic Test.node2.phy[0].shaper rc7QueueSize:stats
field count 1
field mean 0
field stddev -nan
field min 0
field max 0
field sum 0
field sqrsum 0
attr interpolationmode sample-hold
attr title "RC-Queue Size (rc7QueueSize)"
attr unit B
statistic Test.node2.phy[0].shaper rc7QueueLength:stats
field count 1
field mean 0
field stddev -nan
field min 0
field max 0
field sum 0
field sqrsum 0
attr interpolationmode sample-hold
attr title "RC-Queue Length (rc7QueueLength)"
attr unit packets
statistic Test.node2.phy[0].shaper rc6QueueSize:stats
field count 1
field mean 0
field stddev -nan
field min 0
field max 0
field sum 0
field sqrsum 0
attr interpolationmode sample-hold
attr title "RC-Queue Size (rc6QueueSize)"
attr unit B
statistic Test.node2.phy[0].shaper rc6QueueLength:stats
field count 1
field mean 0
field stddev -nan
field min 0
field max 0
field sum 0
field sqrsum 0
attr interpolationmode sample-hold
attr title "RC-Queue Length (rc6QueueLength)"
attr unit packets
statistic Test.node2.phy[0].shaper rc5QueueSize:stats
field count 1
field mean 0
field stddev -nan
field min 0
field max 0
field sum 0
field sqrsum 0
attr interpolationmode sample-hold
attr title "RC-Queue Size (rc5QueueSize)"
attr unit B
statistic Test.node2.phy[0].shaper rc5QueueLength:stats
field count 1
field mean 0
field stddev -nan
field min 0
field max 0
field sum 0
field sqrsum 0
attr interpolationmode sample-hold
attr title "RC-Queue Length (rc5QueueLength)"
attr unit packets
statistic Test.node2.phy[0].shaper rc4QueueSize:stats
field count 1
field mean 0
field stddev -nan
field min 0
field max 0
field sum 0
field sqrsum 0
attr interpolationmode sample-hold
attr title "RC-Queue Size (rc4QueueSize)"
attr unit B
statistic Test.node2.phy[0].shaper rc4QueueLength:stats
field count 1
field mean 0
field stddev -nan
field min 0
field max 0
field sum 0
field sqrsum 0
attr interpolationmode sample-hold
attr title "RC-Queue Length (rc4QueueLength)"
attr unit packets
statistic Test.node2.phy[0].shaper rc3QueueSize:stats
field count 1
field mean 0
field stddev -nan
field min 0
field max 0
field sum 0
field sqrsum 0
attr interpolationmode sample-hold
attr title "RC-Queue Size (rc3QueueSize)"
attr unit B
statistic Test.node2.phy[0].shaper rc3QueueLength:stats
field count 1
field mean 0
field stddev -nan
field min 0
field max 0
field sum 0
field sqrsum 0
attr interpolationmode sample-hold
attr title "RC-Queue Length (rc3QueueLength)"
attr unit packets
statistic Test.node2.phy[0].shaper rc2QueueSize:stats
field count 1
field mean 0
field stddev -nan
field min 0
field max 0
field sum 0
field sqrsum 0
attr interpolationmode sample-hold
attr title "RC-Queue Size (rc2QueueSize)"
attr unit B
statistic Test.node2.phy[0].shaper rc2QueueLength:stats
field count 1
field mean 0
field stddev -nan
field min 0
field max 0
field sum 0
field sqrsum 0
attr interpolationmode sample-hold
attr title "RC-Queue Length (rc2QueueLength)"
attr unit packets
statistic Test.node2.phy[0].shaper rc1QueueSize:stats
field count 1
field mean 0
field stddev -nan
field min 0
field max 0
field sum 0
field sqrsum 0
attr interpolationmode sample-hold
attr title "RC-Queue Size (rc1QueueSize)"
attr unit B
statistic Test.node2.phy[0].shaper rc1QueueLength:stats
field count 1
field mean 0
field stddev -nan
field min 0
field max 0
field sum 0
field sqrsum 0
attr interpolationmode sample-hold
attr title "RC-Queue Length (rc1QueueLength)"
attr unit packets
statistic Test.node2.phy[0].shaper rc0QueueSize:stats
field count 1
field mean 0
field stddev -nan
field min 0
field max 0
field sum 0
field sqrsum 0
attr interpolationmode sample-hold
attr title "RC-Queue Size (rc0QueueSize)"
attr unit B
statistic Test.node2.phy[0].shaper rc0QueueLength:stats
field count 1
field mean 0
field stddev -nan
field min 0
field max 0
field sum 0
field sqrsum 0
attr interpolationmode sample-hold
attr title "RC-Queue Length (rc0QueueLength)"
attr unit packets
statistic Test.node2.phy[0].shaper beQueueSize:stats
field count 1
field mean 0
field stddev -nan
field min 0
field max 0
field sum 0
field sqrsum 0
attr interpolationmode sample-hold
attr title "BE-Queue Size, stats"
attr unit B
statistic Test.node2.phy[0].shaper beQueueLength:stats
field count 1
field mean 0
field stddev -nan
field min 0
field max 0
field sum 0
field sqrsum 0
attr interpolationmode sample-hold
attr title "BE-Queue Length, stats"
attr unit packets
statistic Test.node2.phy[0].shaper pcfQueueSize:stats
field count 1
field mean 0
field stddev -nan
field min 0
field max 0
field sum 0
field sqrsum 0
attr interpolationmode sample-hold
attr title "BE-Queue Size, stats"
attr unit B
statistic Test.node2.phy[0].shaper pcfQueueLength:stats
field count 1
field mean 0
field stddev -nan
field min 0
field max 0
field sum 0
field sqrsum 0
attr interpolationmode sample-hold
attr title "PCF-Queue Length, stats"
attr unit packets
statistic Test.node2.phy[0].shaper ttQueueLength:stats
field count 1
field mean 0
field stddev -nan
field min 0
field max 0
field sum 0
field sqrsum 0
attr interpolationmode sample-hold
attr title "TT-Queue Length, stats"
attr unit packets
scalar Test.node2.phy[0].inControl dropped:count 0
attr interpolationmode none
attr source droppedPk
attr title "Unconfigured CT dropped, count"
attr unit packets
statistic Test.node2.phy[0].inControl rxLatency:stats
field count 3
field mean 3.2516e-05
field stddev 4.5474735088646e-13
field min 3.2516e-05
field max 3.2516e-05
field sum 9.7548e-05
field sqrsum 3.171870768e-09
attr interpolationmode none
attr source messageAge(rxPk)
attr title "End-to-end latency (received), stats"
attr unit s
statistic Test.node2.phy[0].inControl rxLatency:histogram
field count 3
field mean 3.2516e-05
field stddev 4.5474735088646e-13
field min 3.2516e-05
field max 3.2516e-05
field sum 9.7548e-05
field sqrsum 3.171870768e-09
attr interpolationmode none
attr source messageAge(rxPk)
attr title "End-to-end latency (received), histogram"
attr unit s
bin	-inf	0
bin	0	3
bin	0.01	0
bin	0.02	0
bin	0.03	0
bin	0.04	0
bin	0.05	0
bin	0.06	0
bin	0.07	0
bin	0.08	0
bin	0.09	0
bin	0.1	0
bin	0.11	0
bin	0.12	0
bin	0.13	0
bin	0.14	0
bin	0.15	0
bin	0.16	0
bin	0.17	0
bin	0.18	0
bin	0.19	0
bin	0.2	0
bin	0.21	0
bin	0.22	0
bin	0.23	0
bin	0.24	0
bin	0.25	0
bin	0.26	0
bin	0.27	0
bin	0.28	0
bin	0.29	0
bin	0.3	0
bin	0.31	0
bin	0.32	0
bin	0.33	0
bin	0.34	0
bin	0.35	0
bin	0.36	0
bin	0.37	0
bin	0.38	0
bin	0.39	0
bin	0.4	0
bin	0.41	0
bin	0.42	0
bin	0.43	0
bin	0.44	0
bin	0.45	0
bin	0.46	0
bin	0.47	0
bin	0.48	0
bin	0.49	0
bin	0.5	0
bin	0.51	0
scalar Test.node2.phy[0].mac "simulated time" 0.001
scalar Test.node2.phy[0].mac full-duplex 1
scalar Test.node2.phy[0].mac "frames/sec sent" 0
scalar Test.node2.phy[0].mac "frames/sec rcvd" 3000
scalar Test.node2.phy[0].mac "bits/sec sent" 0
scalar Test.node2.phy[0].mac "bits/sec rcvd" 36432000
scalar Test.node2.phy[0].mac "rx channel idle (%)" 96.3376
scalar Test.node2.phy[0].mac "rx channel utilization (%)" 3.6624
scalar Test.node2.phy[0].mac droppedPkNotForUs:count 0
attr interpolationmode none
attr source dropPkNotForUs
attr title "packets dropped/not for us, count"
scalar Test.node2.phy[0].mac droppedPkNotForUs:sum(packetBytes) 0
attr interpolationmode none
attr source dropPkNotForUs
attr title "packets dropped/not for us, sum(packetBytes)"
scalar Test.node2.phy[0].mac droppedPkIfaceDown:count 0
attr interpolationmode none
attr source dropPkIfaceDown
attr title "packets dropped/interface down, count"
scalar Test.node2.phy[0].mac droppedPkIfaceDown:sum(packetBytes) 0
attr interpolationmode none
attr source dropPkIfaceDown
attr title "packets dropped/interface down, sum(packetBytes)"
scalar Test.node2.phy[0].mac droppedPkBitError:count 0
attr interpolationmode none
attr source dropPkBitError
attr title "packets dropped/bit error, count"
scalar Test.node2.phy[0].mac droppedPkBitError:sum(packetBytes) 0
attr interpolationmode none
attr source dropPkBitError
attr title "packets dropped/bit error, sum(packetBytes)"
scalar Test.node2.phy[0].mac rxPkFromHL:count 0
attr interpolationmode none
attr source rxPkFromHL
attr title "packet bytes from higher layer, count"
scalar Test.node2.phy[0].mac rxPkFromHL:sum(packetBytes) 0
attr interpolationmode none
attr source rxPkFromHL
attr title "packet bytes from higher layer, sum(packetBytes)"
scalar Test.node2.phy[0].mac rxPausePkUnits:count 0
attr interpolationmode none
attr title "pause units received, count"
scalar Test.node2.phy[0].mac rxPausePkUnits:sum 0
attr interpolationmode none
attr title "pause units received, sum"
scalar Test.node2.phy[0].mac txPausePkUnits:count 0
attr interpolationmode none
attr title "pause units sent, count"
scalar Test.node2.phy[0].mac txPausePkUnits:sum 0
attr interpolationmode none
attr title "pause units sent, sum"
scalar Test.node2.phy[0].mac rxPkOk:count 3
attr interpolationmode none
attr source rxPkOk
attr title "packets received OK, count"
scalar Test.node2.phy[0].mac rxPkOk:sum(packetBytes) 4554
attr interpolationmode none
attr source rxPkOk
attr title "packets received OK, sum(packetBytes)"
scalar Test.node2.phy[0].mac txPk:count 0
attr interpolationmode none
attr source txPk
attr title "packets transmitted, count"
scalar Test.node2.phy[0].mac txPk:sum(packetBytes) 0
attr interpolationmode none
attr source txPk
attr title "packets transmitted, sum(packetBytes)"
scalar Test.node2.phy[0].mac passedUpPk:count 3
attr interpolationmode none
attr source packetSentToUpper
attr title "packets passed to higher layer, count"
scalar Test.node2.phy[0].mac passedUpPk:sum(packetBytes) 4554
attr interpolationmode none
attr source packetSentToUpper
attr title "packets passed to higher layer, sum(packetBytes)"
scalar Test.node2.encap pauseSent:count 0
attr title "pause sent, count"
scalar Test.node2.encap pauseSent:sum 0
attr title "pause sent, sum"
scalar Test.node2.encap decapPk:count 0
attr interpolationmode none
attr source decapPk
attr title "packets decapsulated, count"
scalar Test.node2.encap decapPk:sum(packetBytes) 0
attr interpolationmode none
attr source decapPk
attr title "packets decapsulated, sum(packetBytes)"
scalar Test.node2.encap encapPk:count 0
attr interpolationmode none
attr source encapPk
attr title "packets encapsulated, count"
scalar Test.node2.encap encapPk:sum(packetBytes) 0
attr interpolationmode none
attr source encapPk
attr title "packets encapsulated, sum(packetBytes)"
scalar Test.node2.scheduler.period[0] numberOfCycles:count 0
attr interpolationmode none
attr source newCycle
attr title "Number of cycle, count"
scalar Test.node2.scheduler.period[1] numberOfCycles:count 0
attr interpolationmode none
attr source newCycle
attr title "Number of cycle, count"
statistic Test.node2.app[0] payloadOverTime:stats
field count 0
field mean -nan
field stddev -nan
field min -nan
field max -nan
field sum 0
field sqrsum 0
attr interpolationmode linear
attr source payloadSignal
attr title "payload over time, stats"
attr unit B
statistic Test.node2.app[0] payloadOverTime:histogram
field count 0
field mean -nan
field stddev -nan
field min -nan
field max -nan
field sum 0
field sqrsum 0
attr interpolationmode linear
attr source payloadSignal
attr title "payload over time, histogram"
attr unit B
bin	-inf	0
bin	0	0
bin	1	0
scalar Test.node2.app[1] rxPk:count 0
attr source rxPk
attr title "Received Packets, count"
attr unit packets
scalar Test.node2.app[1] rxBytes:sum(packetBytes) 0
attr interpolationmode none
attr source rxPk
attr title "Received Bytes, sum(packetBytes)"
[...]
attr unit s
statistic Test.node2.app[1] rxLatency:histogram
field count 0
field mean -nan
field stddev -nan
field min -nan
field max -nan
field sum 0
field sqrsum 0
attr interpolationmode none
attr source messageAge(rxPk)
attr title "End-to-end latency, histogram"
attr unit s
bin	-inf	0
bin	0	0
bin	1	0
statistic Test.node2.app[1] rxLatencyInner:stats
field count 0
field mean -nan
field stddev -nan
field min -nan
field max -nan
field sum 0
field sqrsum 0
attr interpolationmode none
attr source messageAge(innerMessage(rxPk))
attr title "End-to-end latency inner, stats"
attr unit s
statistic Test.node2.app[1] rxLatencyInner:histogram
field count 0
field mean -nan
field stddev -nan
field min -nan
field max -nan
field sum 0
field sqrsum 0
attr interpolationmode none
attr source messageAge(innerMessage(rxPk))
attr title "End-to-end latency inner, histogram"
attr unit s
bin	-inf	0
bin	0	0
bin	1	0
scalar Test.node2.app[2] rxPk:count 0
attr source rxPk
attr title "Received Packets, count"
attr unit packets
scalar Test.node2.app[2] rxBytes:sum(packetBytes) 0
attr interpolationmode none
attr source rxPk
attr title "Received Bytes, sum(packetBytes)"
attr unit B
statistic Test.node2.app[2] rxBytes:histogram(packetBytes)
field count 0
field mean -nan
field stddev -nan
field min -nan
field max -nan
field sum 0
field sqrsum 0
attr interpolationmode none
attr source rxPk
attr title "Received Bytes, histogram(packetBytes)"
attr unit B
bin	-inf	0
bin	0	0
bin	1	0
statistic Test.node2.app[2] rxLatency:stats
field count 0
field mean -nan
field stddev -nan
field min -nan
field max -nan
field sum 0
field sqrsum 0
attr interpolationmode none
attr source messageAge(rxPk)
attr title "End-to-end latency, stats"
attr unit s
statistic Test.node2.app[2] rxLatency:histogram
field count 0
field mean -nan
field stddev -nan
field min -nan
field max -nan
field sum 0
field sqrsum 0
attr interpolationmode none
attr source messageAge(rxPk)
attr title "End-to-end latency, histogram"
attr unit s
bin	-inf	0
bin	0	0
bin	1	0
statistic Test.node2.app[2] rxLatencyInner:stats
field count 0
field mean -nan
field stddev -nan
field min -nan
field max -nan
field sum 0
field sqrsum 0
attr interpolationmode none
attr source messageAge(innerMessage(rxPk))
attr title "End-to-end latency inner, stats"
attr unit s
statistic Test.node2.app[2] rxLatencyInner:histogram
field count 0
field mean -nan
field stddev -nan
field min -nan
field max -nan
field sum 0
field sqrsum 0
attr interpolationmode none
attr source messageAge(innerMessage(rxPk))
attr title "End-to-end latency inner, histogram"
attr unit s
bin	-inf	0
bin	0	0
bin	1	0
scalar Test.node2.app[3] rxPk:count 0
attr source rxPk
attr title "Received Packets, count"
attr unit packets
scalar Test.node2.app[3] rxBytes:sum(packetBytes) 0
attr interpolationmode none
attr source rxPk
attr title "Received Bytes, sum(packetBytes)"
attr unit B
statistic Test.node2.app[3] rxBytes:histogram(packetBytes)
field count 0
field mean -nan
field stddev -nan
field min -nan
field max -nan
field sum 0
field sqrsum 0
attr interpolationmode none
attr source rxPk
attr title "Received Bytes, histogram(packetBytes)"
attr unit B
bin	-inf	0
bin	0	0
bin	1	0
statistic Test.node2.app[3] rxLatency:stats
field count 0
field mean -nan
field stddev -nan
field min -nan
field max -nan
field sum 0
field sqrsum 0
attr interpolationmode none
attr source messageAge(rxPk)
attr title "End-to-end latency, stats"
attr unit s
statistic Test.node2.app[3] rxLatency:histogram
field count 0
field mean -nan
field stddev -nan
field min -nan
field max -nan
field sum 0
field sqrsum 0
attr interpolationmode none
attr source messageAge(rxPk)
attr title "End-to-end latency, histogram"
attr unit s
bin	-inf	0
bin	0	0
bin	1	0
statistic Test.node2.app[3] rxLatencyInner:stats
field count 0
field mean -nan
field stddev -nan
field min -nan
field max -nan
field sum 0
field sqrsum 0
attr interpolationmode none
attr source messageAge(innerMessage(rxPk))
attr title "End-to-end latency inner, stats"
attr unit s
statistic Test.node2.app[3] rxLatencyInner:histogram
field count 0
field mean -nan
field stddev -nan
field min -nan
field max -nan
field sum 0
field sqrsum 0
attr interpolationmode none
attr source messageAge(innerMessage(rxPk))
attr title "End-to-end latency inner, histogram"
attr unit s
bin	-inf	0
bin	0	0
bin	1	0
scalar Test.node2.bgIn dropped:sum 0
attr source dropped
attr title "Dropped frames, sum"
attr unit packets
scalar Test.node2.bgIn rxPk:count 3
attr source rxPk
attr title "Received Packets, count"
attr unit packets
scalar Test.node2.bgIn rxBytes:sum(packetBytes) 4554
attr interpolationmode none
attr source rxPk
attr title "Received Bytes, sum(packetBytes)"
attr unit B
statistic Test.node2.bgIn rxBytes:histogram(packetBytes)
field count 3
field mean 1518
field stddev 0
field min 1518
field max 1518
field sum 4554
field sqrsum 6912972
attr interpolationmode none
attr source rxPk
attr title "Received Bytes, histogram(packetBytes)"
attr unit B
bin	-inf	0
bin	1517	0
bin	1518	3
bin	1519	0
statistic Test.node2.bgIn rxLatency:stats
field count 3
field mean 3.2516e-05
field stddev 4.5474735088646e-13
field min 3.2516e-05
field max 3.2516e-05
field sum 9.7548e-05
field sqrsum 3.171870768e-09
attr interpolationmode none
attr source messageAge(rxPk)
attr title "End-to-end latency (received), stats"
attr unit s
statistic Test.node2.bgIn rxLatency:histogram
field count 3
field mean 3.2516e-05
field stddev 4.5474735088646e-13
field min 3.2516e-05
field max 3.2516e-05
field sum 9.7548e-05
field sqrsum 3.171870768e-09
attr interpolationmode none
attr source messageAge(rxPk)
attr title "End-to-end latency (received), histogram"
attr unit s
bin	-inf	0
bin	0	3
bin	0.01	0
bin	0.02	0
bin	0.03	0
bin	0.04	0
bin	0.05	0
bin	0.06	0
bin	0.07	0
bin	0.08	0
bin	0.09	0
bin	0.1	0
bin	0.11	0
bin	0.12	0
bin	0.13	0
bin	0.14	0
bin	0.15	0
bin	0.16	0
bin	0.17	0
bin	0.18	0
bin	0.19	0
bin	0.2	0
bin	0.21	0
bin	0.22	0
bin	0.23	0
bin	0.24	0
bin	0.25	0
bin	0.26	0
bin	0.27	0
bin	0.28	0
bin	0.29	0
bin	0.3	0
bin	0.31	0
bin	0.32	0
bin	0.33	0
bin	0.34	0
bin	0.35	0
bin	0.36	0
bin	0.37	0
bin	0.38	0
bin	0.39	0
bin	0.4	0
bin	0.41	0
bin	0.42	0
bin	0.43	0
bin	0.44	0
bin	0.45	0
bin	0.46	0
bin	0.47	0
bin	0.48	0
bin	0.49	0
bin	0.5	0
bin	0.51	0
scalar Test.node2.bgIn txPk:count 0
attr source txPk
attr title "Transmitted Packets, count"
attr unit packets
scalar Test.node2.bgIn txBytes:sum(packetBytes) 0
attr interpolationmode none
attr source txPk
attr title "Transmitted Bytes, sum(packetBytes)"
attr unit B
statistic Test.node2.bgIn txBytes:histogram(packetBytes)
field count 0
field mean -nan
field stddev -nan
field min -nan
field max -nan
field sum 0
field sqrsum 0
attr interpolationmode none
attr source txPk
attr title "Transmitted Bytes, histogram(packetBytes)"
attr unit B
bin	-inf	0
bin	0	0
bin	1	0
statistic Test.node2.bgIn txLatency:stats
field count 0
field mean -nan
field stddev -nan
field min -nan
field max -nan
field sum 0
field sqrsum 0
attr interpolationmode none
attr source messageAge(txPk)
attr title "End-to-end latency (transmitted), stats"
attr unit s
statistic Test.node2.bgIn txLatency:histogram
field count 0
field mean -nan
field stddev -nan
field min -nan
field max -nan
field sum 0
field sqrsum 0
attr interpolationmode none
attr source messageAge(txPk)
attr title "End-to-end latency (transmitted), histogram"
attr unit s
bin	-inf	0
bin	0	0
bin	1	0
scalar Test.node2.bgOut dropped:sum 0
attr source dropped
attr title "Dropped frames, sum"
attr unit packets
scalar Test.node2.bgOut rxPk:count 0
attr source rxPk
attr title "Received Packets, count"
attr unit packets
scalar Test.node2.bgOut rxBytes:sum(packetBytes) 0
attr interpolationmode none
attr source rxPk
attr title "Received Bytes, sum(packetBytes)"
attr unit B
statistic Test.node2.bgOut rxBytes:histogram(packetBytes)
field count 0
field mean -nan
field stddev -nan
field min -nan
field max -nan
field sum 0
field sqrsum 0
attr interpolationmode none
attr source rxPk
attr title "Received Bytes, histogram(packetBytes)"
attr unit B
bin	-inf	0
bin	0	0
bin	1	0
statistic Test.node2.bgOut rxLatency:stats
field count 0
field mean -nan
field stddev -nan
field min -nan
field max -nan
field sum 0
field sqrsum 0
attr interpolationmode none
attr source messageAge(rxPk)
attr title "End-to-end latency (received), stats"
attr unit s
statistic Test.node2.bgOut rxLatency:histogram
field count 0
field mean -nan
field stddev -nan
field min -nan
field max -nan
field sum 0
field sqrsum 0
attr interpolationmode none
attr source messageAge(rxPk)
attr title "End-to-end latency (received), histogram"
attr unit s
bin	-inf	0
bin	0	0
bin	1	0
scalar Test.node2.bgOut txPk:count 0
attr source txPk
attr title "Transmitted Packets, count"
attr unit packets
scalar Test.node2.bgOut txBytes:sum(packetBytes) 0
attr interpolationmode none
attr source txPk
attr title "Transmitted Bytes, sum(packetBytes)"
attr unit B
statistic Test.node2.bgOut txBytes:histogram(packetBytes)
field count 0
field mean -nan
field stddev -nan
field min -nan
field max -nan
field sum 0
field sqrsum 0
attr interpolationmode none
attr source txPk
attr title "Transmitted Bytes, histogram(packetBytes)"
attr unit B
bin	-inf	0
bin	0	0
bin	1	0
statistic Test.node2.bgOut txLatency:stats
field count 0
field mean -nan
field stddev -nan
field min -nan
field max -nan
field sum 0
field sqrsum 0
attr interpolationmode none
attr source messageAge(txPk)
attr title "End-to-end latency (transmitted), stats"
attr unit s
statistic Test.node2.bgOut txLatency:histogram
field count 0
field mean -nan
field stddev -nan
field min -nan
field max -nan
field sum 0
field sqrsum 0
attr interpolationmode none
attr source messageAge(txPk)
attr title "End-to-end latency (transmitted), histogram"
attr unit s
bin	-inf	0
bin	0	0
bin	1	0
scalar Test.node2.vl_100_ctc dropped:count 0
attr source droppedPk
attr title "Packets Dropped, count"
scalar Test.node2.vl_100_ctc rxPk:count 0
attr source rxPk
attr title "Received Packets, count"
scalar Test.node2.vl_100_ctc rxBytes:sum(packetBytes) 0
attr interpolationmode none
attr source rxPk
attr title "Received Bytes, sum(packetBytes)"
attr unit B
statistic Test.node2.vl_100_ctc latency:stats
field count 0
field mean -nan
field stddev -nan
field min -nan
field max -nan
field sum 0
field sqrsum 0
attr interpolationmode none
attr source messageAge(rxPk)
attr title "End-to-end latency, stats"
attr unit s
statistic Test.node2.vl_100_ctc latency:histogram
field count 0
field mean -nan
field stddev -nan
field min -nan
field max -nan
field sum 0
field sqrsum 0
attr interpolationmode none
attr source messageAge(rxPk)
attr title "End-to-end latency, histogram"
attr unit s
bin	-inf	0
bin	0	0
bin	1	0
scalar Test.node2.vl_100 rxPk:count 0
attr source rxPk
attr title "Received Packets, count"
attr unit packets
scalar Test.node2.vl_100 rxBytes:sum(packetBytes) 0
attr interpolationmode none
attr source rxPk
attr title "Received Bytes, sum(packetBytes)"
attr unit B
statistic Test.node2.vl_100 rxBytes:histogram(packetBytes)
field count 0
field mean -nan
field stddev -nan
field min -nan
field max -nan
field sum 0
field sqrsum 0
attr interpolationmode none
attr source rxPk
attr title "Received Bytes, histogram(packetBytes)"
attr unit B
bin	-inf	0
bin	0	0
bin	1	0
statistic Test.node2.vl_100 rxLatency:stats
field count 0
field mean -nan
field stddev -nan
field min -nan
field max -nan
field sum 0
field sqrsum 0
attr interpolationmode none
attr source messageAge(rxPk)
attr title "End-to-end latency (received), stats"
attr unit s
statistic Test.node2.vl_100 rxLatency:histogram
field count 0
field mean -nan
field stddev -nan
field min -nan
field max -nan
field sum 0
field sqrsum 0
attr interpolationmode none
attr source messageAge(rxPk)
attr title "End-to-end latency (received), histogram"
attr unit s
bin	-inf	0
bin	0	0
bin	1	0
scalar Test.node2.vl_100 txPk:count 0
attr source txPk
attr title "Transmitted Packets, count"
attr unit packets
scalar Test.node2.vl_100 txBytes:sum(packetBytes) 0
attr interpolationmode none
attr source txPk
attr title "Transmitted Bytes, sum(packetBytes)"
attr unit B
statistic Test.node2.vl_100 txBytes:histogram(packetBytes)
field count 0
field mean -nan
field stddev -nan
field min -nan
field max -nan
field sum 0
field sqrsum 0
attr interpolationmode none
attr source txPk
attr title "Transmitted Bytes, histogram(packetBytes)"
attr unit B
bin	-inf	0
bin	0	0
bin	1	0
statistic Test.node2.vl_100 txLatency:stats
field count 0
field mean -nan
field stddev -nan
field min -nan
field max -nan
field sum 0
field sqrsum 0
attr interpolationmode none
attr source messageAge(txPk)
attr title "End-to-end latency (transmitted), stats"
attr unit s
statistic Test.node2.vl_100 txLatency:histogram
field count 0
field mean -nan
field stddev -nan
field min -nan
field max -nan
field sum 0
field sqrsum 0
attr interpolationmode none
attr source messageAge(txPk)
attr title "End-to-end latency (transmitted), histogram"
attr unit s
bin	-inf	0
bin	0	0
bin	1	0
scalar Test.node2.vl_101_ctc dropped:count 0
attr source droppedPk
attr title "Packets Dropped, count"
scalar Test.node2.vl_101_ctc rxPk:count 0
attr source rxPk
attr title "Received Packets, count"
scalar Test.node2.vl_101_ctc rxBytes:sum(packetBytes) 0
attr interpolationmode none
attr source rxPk
attr title "Received Bytes, sum(packetBytes)"
attr unit B
statistic Test.node2.vl_101_ctc latency:stats
field count 0
field mean -nan
field stddev -nan
field min -nan
field max -nan
field sum 0
field sqrsum 0
attr interpolationmode none
attr source messageAge(rxPk)
attr title "End-to-end latency, stats"
attr unit s
statistic Test.node2.vl_101_ctc latency:histogram
field count 0
field mean -nan
field stddev -nan
field min -nan
field max -nan
field sum 0
field sqrsum 0
attr interpolationmode none
attr source messageAge(rxPk)
attr title "End-to-end latency, histogram"
attr unit s
bin	-inf	0
bin	0	0
bin	1	0
scalar Test.node2.vl_101 dropped:count 0
attr source dropped
attr title "Dropped packets, count"
attr unit packets
statistic Test.node2.vl_101 size:stats
field count 0
field mean -nan
field stddev -nan
field min -nan
field max -nan
field sum 0
field sqrsum 0
attr interpolationmode sample-hold
attr source size
attr title "Queue Size, stats"
attr unit B
statistic Test.node2.vl_101 length:stats
field count 0
field mean -nan
field stddev -nan
field min -nan
field max -nan
field sum 0
field sqrsum 0
attr interpolationmode sample-hold
attr source length
attr title "Queue Length, stats"
attr unit packets
scalar Test.node2.vl_101 rxPk:count 0
attr source rxPk
attr title "Received Packets, count"
attr unit packets
scalar Test.node2.vl_101 rxBytes:sum(packetBytes) 0
attr interpolationmode none
attr source rxPk
attr title "Received Bytes, sum(packetBytes)"
attr unit B
statistic Test.node2.vl_101 rxBytes:histogram(packetBytes)
field count 0
field mean -nan
field stddev -nan
field min -nan
field max -nan
field sum 0
field sqrsum 0
attr interpolationmode none
attr source rxPk
attr title "Received Bytes, histogram(packetBytes)"
attr unit B
bin	-inf	0
bin	0	0
bin	1	0
statistic Test.node2.vl_101 rxLatency:stats
field count 0
field mean -nan
field stddev -nan
field min -nan
field max -nan
field sum 0
field sqrsum 0
attr interpolationmode none
attr source messageAge(rxPk)
attr title "End-to-end latency (received), stats"
attr unit s
statistic Test.node2.vl_101 rxLatency:histogram
field count 0
field mean -nan
field stddev -nan
field min -nan
field max -nan
field sum 0
field sqrsum 0
attr interpolationmode none
attr source messageAge(rxPk)
attr title "End-to-end latency (received), histogram"
attr unit s
bin	-inf	0
bin	0	0
bin	1	0
scalar Test.node2.vl_101 txPk:count 0
attr source txPk
attr title "Transmitted Packets, count"
attr unit packets
scalar Test.node2.vl_101 txBytes:sum(packetBytes) 0
attr interpolationmode none
attr source txPk
attr title "Transmitted Bytes, sum(packetBytes)"
attr unit B
statistic Test.node2.vl_101 txBytes:histogram(packetBytes)
field count 0
field mean -nan
field stddev -nan
field min -nan
field max -nan
field sum 0
field sqrsum 0
attr interpolationmode none
attr source txPk
attr title "Transmitted Bytes, histogram(packetBytes)"
attr unit B
bin	-inf	0
bin	0	0
bin	1	0
statistic Test.node2.vl_101 txLatency:stats
field count 0
field mean -nan
field stddev -nan
field min -nan
field max -nan
field sum 0
field sqrsum 0
attr interpolationmode none
attr source messageAge(txPk)
attr title "End-to-end latency (transmitted), stats"
attr unit s
statistic Test.node2.vl_101 txLatency:histogram
field count 0
field mean -nan
field stddev -nan
field min -nan
field max -nan
field sum 0
field sqrsum 0
attr interpolationmode none
attr source messageAge(txPk)
attr title "End-to-end latency (transmitted), histogram"
attr unit s
bin	-inf	0
bin	0	0
bin	1	0
scalar Test.node2.vl_102_ctc dropped:count 0
attr source droppedPk
attr title "Packets Dropped, count"
scalar Test.node2.vl_102_ctc rxPk:count 0
attr source rxPk
attr title "Received Packets, count"
scalar Test.node2.vl_102_ctc rxBytes:sum(packetBytes) 0
attr interpolationmode none
attr source rxPk
attr title "Received Bytes, sum(packetBytes)"
attr unit B
statistic Test.node2.vl_102_ctc latency:stats
field count 0
field mean -nan
field stddev -nan
field min -nan
field max -nan
field sum 0
field sqrsum 0
attr interpolationmode none
attr source messageAge(rxPk)
attr title "End-to-end latency, stats"
attr unit s
statistic Test.node2.vl_102_ctc latency:histogram
field count 0
field mean -nan
field stddev -nan
field min -nan
field max -nan
field sum 0
field sqrsum 0
attr interpolationmode none
attr source messageAge(rxPk)
attr title "End-to-end latency, histogram"
attr unit s
bin	-inf	0
bin	0	0
bin	1	0
scalar Test.node2.vl_102 rxPk:count 0
attr source rxPk
attr title "Received Packets, count"
attr unit packets
scalar Test.node2.vl_102 rxBytes:sum(packetBytes) 0
attr interpolationmode none
attr source rxPk
attr title "Received Bytes, sum(packetBytes)"
attr unit B
statistic Test.node2.vl_102 rxBytes:histogram(packetBytes)
field count 0
field mean -nan
field stddev -nan
field min -nan
field max -nan
field sum 0
field sqrsum 0
attr interpolationmode none
attr source rxPk
attr title "Received Bytes, histogram(packetBytes)"
attr unit B
bin	-inf	0
bin	0	0
bin	1	0
statistic Test.node2.vl_102 rxLatency:stats
field count 0
field mean -nan
field stddev -nan
field min -nan
field max -nan
field sum 0
field sqrsum 0
attr interpolationmode none
attr source messageAge(rxPk)
attr title "End-to-end latency (received), stats"
attr unit s
statistic Test.node2.vl_102 rxLatency:histogram
field count 0
field mean -nan
field stddev -nan
field min -nan
field max -nan
field sum 0
field sqrsum 0
attr interpolationmode none
attr source messageAge(rxPk)
attr title "End-to-end latency (received), histogram"
attr unit s
bin	-inf	0
bin	0	0
bin	1	0
scalar Test.node2.vl_102 txPk:count 0
attr source txPk
attr title "Transmitted Packets, count"
attr unit packets
scalar Test.node2.vl_102 txBytes:sum(packetBytes) 0
attr interpolationmode none
attr source txPk
attr title "Transmitted Bytes, sum(packetBytes)"
attr unit B
statistic Test.node2.vl_102 txBytes:histogram(packetBytes)
field count 0
field mean -nan
field stddev -nan
field min -nan
field max -nan
field sum 0
field sqrsum 0
attr interpolationmode none
attr source txPk
attr title "Transmitted Bytes, histogram(packetBytes)"
attr unit B
bin	-inf	0
bin	0	0
bin	1	0
statistic Test.node2.vl_102 txLatency:stats
field count 0
field mean -nan
field stddev -nan
field min -nan
field max -nan
field sum 0
field sqrsum 0
attr interpolationmode none
attr source messageAge(txPk)
attr title "End-to-end latency (transmitted), stats"
attr unit s
statistic Test.node2.vl_102 txLatency:histogram
field count 0
field mean -nan
field stddev -nan
field min -nan
field max -nan
field sum 0
field sqrsum 0
attr interpolationmode none
attr source messageAge(txPk)
attr title "End-to-end latency (transmitted), histogram"
attr unit s
bin	-inf	0
bin	0	0
bin	1	0

